CIP:rRS;
__Jmol-14_05291710533D 1   1.00000     0.00000     0
Jmol version 14.17.2  2017-05-27 15:31 EXTRACT: ({0:9})
 10  9  0  0  0  0              1 V2000
  -0.33501  -1.01330  -0.21930 S   0  0  0  0  0  0
  -0.16480  -1.36260  -1.67230 O   0  0  0  0  0  0
   1.22760  -0.40000   0.45820 C   0  0  0  0  0  0
   1.05070   0.03070   1.44680 H   0  0  0  0  0  0
   2.08840  -1.44220   0.63890 F   0  0  0  0  0  0
   2.03900   0.82021  -0.54401 Cl  0  0  0  0  0  0
  -1.18350   0.57451  -0.08740 C   0  0  0  0  0  0
  -0.81090   1.27020  -0.84330 H   0  0  0  0  0  0
  -0.97501   1.12090   1.14230 F   0  0  0  0  0  0
  -2.93650   0.40150  -0.32000 Cl  0  0  0  0  0  0
  2  1  2  0  0  0
  3  1  1  0  0  0
  3  4  1  0  0  0
  5  3  1  0  0  0
  6  3  1  0  0  0
  7  1  1  0  0  0
  7  8  1  0  0  0
  9  7  1  0  0  0
 10  7  1  0  0  0
M  END
