CIP:ZZSEE;
__Jmol-14_05291710533D 1   1.00000     0.00000     0
Jmol version 14.17.2  2017-05-27 15:31 EXTRACT: ({0:37})
 38 37  0  0  0  0              1 V2000
   4.05110  11.36780   4.42490 C   0  0  0  0  0  0
   3.24220  10.81390   3.35300 C   0  0  0  0  0  0
   2.92950   9.50270   3.32220 C   0  0  0  0  0  0
   2.13920   8.86080   2.27960 C   0  0  0  0  0  0
   1.94740   7.33460   2.50110 C   0  0  0  0  0  0
   1.10620   6.66030   1.38070 C   0  0  0  0  0  0
   0.88510   5.13620   1.60240 C   0  0  0  0  0  0
  -0.04100   4.49840   0.52570 C   0  0  0  0  0  0
  -0.35080   3.00140   0.82290 C   0  0  0  0  0  0
  -0.99230   2.24630  -0.37700 C   0  0  0  0  0  0
  -1.06400   0.79630  -0.17580 C   0  0  0  0  0  0
  -0.00971  -0.04670  -0.18060 C   0  0  0  0  0  0
   1.38350   0.30170  -0.39220 C   0  0  0  0  0  0
   2.14310   4.45630   1.57730 O   0  0  0  0  0  0
   0.43310   4.98200   2.58620 H   0  0  0  0  0  0
   2.74940  11.86590   2.15020 Cl  0  0  0  0  0  0
  -2.57190   0.13321   0.10310 Cl  0  0  0  0  0  0
   3.48641  12.15964   4.93883 H   0  0  0  0  0  0
   4.97607  11.79034   4.00550 H   0  0  0  0  0  0
   4.30345  10.57292   5.14218 H   0  0  0  0  0  0
   3.29789   8.87134   4.14419 H   0  0  0  0  0  0
   2.57535   9.05574   1.28876 H   0  0  0  0  0  0
   1.16557   9.36075   2.16960 H   0  0  0  0  0  0
   1.50749   7.13736   3.48983 H   0  0  0  0  0  0
   2.91977   6.83260   2.61290 H   0  0  0  0  0  0
   1.55741   6.84551   0.39475 H   0  0  0  0  0  0
   0.14254   7.17633   1.25794 H   0  0  0  0  0  0
   0.38740   4.61784  -0.48039 H   0  0  0  0  0  0
  -0.97023   5.07667   0.41556 H   0  0  0  0  0  0
  -0.98279   2.90917   1.71849 H   0  0  0  0  0  0
   0.55576   2.48097   1.16540 H   0  0  0  0  0  0
  -0.46201   2.48211  -1.31145 H   0  0  0  0  0  0
  -1.98755   2.65557  -0.60501 H   0  0  0  0  0  0
  -0.22959  -1.11020  -0.00565 H   0  0  0  0  0  0
   1.70577   1.01199   0.38345 H   0  0  0  0  0  0
   1.49942   0.76397  -1.38360 H   0  0  0  0  0  0
   2.00119  -0.60681  -0.33682 H   0  0  0  0  0  0
   2.57390   4.58510   0.68409 H   0  0  0  0  0  0
  1  2  1  0  0  0
  2  3  2  0  0  0
  3  4  1  0  0  0
  4  5  1  0  0  0
  5  6  1  0  0  0
  6  7  1  0  0  0
  7  8  1  0  0  0
  8  9  1  0  0  0
  9 10  1  0  0  0
 10 11  1  0  0  0
 11 12  2  0  0  0
 12 13  1  0  0  0
  7 14  1  0  0  0
  7 15  1  0  0  0
  2 16  1  0  0  0
 11 17  1  0  0  0
 18  1  1  0  0  0
 19  1  1  0  0  0
 20  1  1  0  0  0
 21  3  1  0  0  0
 22  4  1  0  0  0
 23  4  1  0  0  0
 24  5  1  0  0  0
 25  5  1  0  0  0
 26  6  1  0  0  0
 27  6  1  0  0  0
 28  8  1  0  0  0
 29  8  1  0  0  0
 30  9  1  0  0  0
 31  9  1  0  0  0
 32 10  1  0  0  0
 33 10  1  0  0  0
 34 12  1  0  0  0
 35 13  1  0  0  0
 36 13  1  0  0  0
 37 13  1  0  0  0
 38 14  1  0  0  0
M  END
