CIP:R;
__Jmol-14_05291710533D 1   1.00000     0.00000     0
Jmol version 14.17.2  2017-05-27 15:31 EXTRACT: ({0:14})
 15 14  0  0  0  0              1 V2000
   6.46450  -9.00420  -1.31660 C   0  0  0  0  0  0
   7.46120  -8.15920  -0.52110 C   0  0  0  0  0  0
   8.78100  -8.91810  -0.39090 C   0  0  0  0  0  0
   9.78870  -8.07150   0.38580 C   0  0  0  0  0  0
   8.55660 -10.13630   0.30251 O   0  0  0  0  0  0
   9.18480  -9.13280  -1.40680 H   0  0  0  0  0  0
   6.81000  -9.09070  -2.36910 H   0  0  0  0  0  0
   6.39530 -10.01720  -0.86530 H   0  0  0  0  0  0
   5.46580  -8.51780  -1.29350 H   0  0  0  0  0  0
   7.63760  -7.19820  -1.04990 H   0  0  0  0  0  0
   7.05010  -7.95570   0.49080 H   0  0  0  0  0  0
  10.60930  -7.75690  -0.29400 H   0  0  0  0  0  0
   9.27980  -7.17170   0.79310 H   0  0  0  0  0  0
  10.20940  -8.67100   1.22140 H   0  0  0  0  0  0
   8.76450 -11.01940  -0.14580 H   0  0  0  0  0  0
  1  2  1  0  0  0
  2  3  1  0  0  0
  3  4  1  0  0  0
  3  5  1  0  0  0
  6  3  1  0  0  0
  7  1  1  0  0  0
  8  1  1  0  0  0
  9  1  1  0  0  0
 10  2  1  0  0  0
 11  2  1  0  0  0
 12  4  1  0  0  0
 13  4  1  0  0  0
 14  4  1  0  0  0
 15  5  1  0  0  0
M  END
