CIP:1r 3R 7S;
__Jmol-14_06031715033D 1   1.00000     0.00000     0
Jmol version 14.17.2  2017-05-27 15:31 EXTRACT: ({0:9})
 10  9  0  0  0  0              1 V2000
  -0.37551   0.20077  -1.00289 S   0  0  0  0  0  0
  -1.40514   1.29711  -1.01168 O   0  0  0  0  0  0
   1.12456   0.76561  -0.16169 C   0  0  0  0  0  0
   1.78620  -0.08651   0.01225 H   0  0  0  0  0  0
   1.80658   1.62585  -0.97080 F   0  0  0  0  0  0
   0.83964   1.57594   1.39199 Cl  0  0  0  0  0  0
  -0.80771  -1.00738   0.26678 C   0  0  0  0  0  0
  -1.17058  -0.50295   1.16572 H   0  0  0  0  0  0
   0.28198  -1.75277   0.60016 F   0  0  0  0  0  0
  -2.08011  -2.11559  -0.28989 Cl  0  0  0  0  0  0
  2  1  2  0  0  0
  3  1  1  0  0  0
  3  4  1  0  0  0
  5  3  1  0  0  0
  6  3  1  0  0  0
  7  1  1  0  0  0
  7  8  1  0  0  0
  9  7  1  0  0  0
 10  7  1  0  0  0
M  END
