CIP:6R;
__Jmol-14_06031715043D 1   1.00000     0.00000     0
Jmol version 14.17.2  2017-05-27 15:31 EXTRACT: ({0:26})
 27 28  0  0  0  0              1 V2000
  -0.14044   0.70440  -1.14476 C   0  0  0  0  0  0
   0.90113   1.50604  -1.57272 C   0  0  0  0  0  0
   2.03364   1.56439  -0.83023 C   0  0  0  0  0  0
   1.64650   0.46355   0.52090 S   0  0  0  0  0  0
   0.00152   0.00020   0.00479 C   0  0  0  0  0  0
   3.29306   2.35324  -1.08061 C   0  0  0  0  0  0
   3.35326   2.64805  -2.12825 H   0  0  0  0  0  0
   3.33785   3.60229  -0.16548 C   0  0  0  0  0  0
   4.86178   3.88422  -0.09453 C   0  0  0  0  0  0
   5.47771   2.46928  -0.10002 C   0  0  0  0  0  0
   4.48140   1.56030  -0.69983 N   0  0  0  0  0  0
   5.03926   0.85660  -1.86241 C   0  0  0  0  0  0
   6.10190  -0.13941  -1.39396 C   0  0  0  0  0  0
   5.52016  -1.06662  -0.52272 F   0  0  0  0  0  0
   6.63324  -0.80960  -2.50116 F   0  0  0  0  0  0
   7.12399   0.54709  -0.72973 F   0  0  0  0  0  0
  -1.05540   0.64343  -1.71539 H   0  0  0  0  0  0
   0.81402   2.07712  -2.48523 H   0  0  0  0  0  0
  -0.69893  -0.66755   0.48413 H   0  0  0  0  0  0
   2.80681   4.43866  -0.61990 H   0  0  0  0  0  0
   2.93599   3.37712   0.82251 H   0  0  0  0  0  0
   5.18985   4.45078  -0.96602 H   0  0  0  0  0  0
   5.11388   4.41074   0.82603 H   0  0  0  0  0  0
   6.38929   2.46406  -0.69766 H   0  0  0  0  0  0
   5.69904   2.15722   0.92061 H   0  0  0  0  0  0
   4.24293   0.32177  -2.37993 H   0  0  0  0  0  0
   5.49252   1.57900  -2.54123 H   0  0  0  0  0  0
  1  5  2  0  0  0
  1  2  1  0  0  0
  1 17  1  0  0  0
  2  3  2  0  0  0
  2 18  1  0  0  0
  3  4  1  0  0  0
  3  6  1  0  0  0
  4  5  1  0  0  0
  5 19  1  0  0  0
  6  7  1  0  0  0
  6 11  1  0  0  0
  6  8  1  0  0  0
  8  9  1  0  0  0
  8 20  1  0  0  0
  8 21  1  0  0  0
  9 10  1  0  0  0
  9 22  1  0  0  0
  9 23  1  0  0  0
 10 11  1  0  0  0
 10 24  1  0  0  0
 10 25  1  0  0  0
 11 12  1  0  0  0
 12 13  1  0  0  0
 12 26  1  0  0  0
 12 27  1  0  0  0
 13 14  1  0  0  0
 13 15  1  0  0  0
 13 16  1  0  0  0
M  END
