CIP:S;
__Jmol-14_05291710533D 1   1.00000     0.00000     0
Jmol version 14.17.2  2017-05-27 15:31 EXTRACT: ({0:67})
 68 72  0  0  0  0              1 V2000
   8.40550  -5.46360  -3.72610 C   0  0  0  0  0  0
   9.53840  -4.54710  -4.18740 C   0  0  0  0  0  0
   9.52420  -5.07850  -2.75310 C   0  0  0  0  0  0
  10.51990  -6.23320  -2.66570 C   0  0  0  0  0  0
  10.59810  -6.74910  -1.22360 C   0  0  0  0  0  0
  10.56500  -8.28970  -1.21080 C   0  0  0  0  0  0
  11.71240  -8.96540  -2.01410 C   0  0  0  0  0  0
  10.54380  -8.78410   0.24481 C   0  0  0  0  0  0
  10.25190 -10.28840   0.28331 C   0  0  0  0  0  0
   9.80880 -10.68670   1.68670 C   0  0  0  0  0  0
  10.06360 -12.18440   1.86620 C   0  0  0  0  0  0
   8.65300 -11.68450   1.56240 C   0  0  0  0  0  0
   9.26190  -8.72780  -1.90540 C   0  0  0  0  0  0
   8.03210  -8.19230  -1.17370 C   0  0  0  0  0  0
   6.79860  -8.44410  -2.03170 C   0  0  0  0  0  0
   5.55720  -8.17590  -1.18200 C   0  0  0  0  0  0
   6.04380  -7.12130  -2.17440 C   0  0  0  0  0  0
  13.11320  -8.48270  -1.53970 C   0  0  0  0  0  0
  13.29400  -6.94680  -1.53510 C   0  0  0  0  0  0
  14.73200  -6.56430  -1.12090 C   0  0  0  0  0  0
  15.58470  -7.83060  -0.90620 C   0  0  0  0  0  0
  14.93990  -8.67420   0.21440 C   0  0  0  0  0  0
  13.47310  -9.02820  -0.13941 C   0  0  0  0  0  0
  14.12070  -9.06410  -2.55280 C   0  0  0  0  0  0
  15.56790  -8.65680  -2.20540 C   0  0  0  0  0  0
  11.62910 -10.36960  -1.82300 O   0  0  0  0  0  0
   8.25308  -6.48417  -4.10715 H   0  0  0  0  0  0
   7.36152  -5.13495  -3.61610 H   0  0  0  0  0  0
   9.39793  -3.48722  -4.44612 H   0  0  0  0  0  0
  10.28948  -4.83645  -4.93717 H   0  0  0  0  0  0
   9.57011  -4.63966  -1.74547 H   0  0  0  0  0  0
  11.51055  -5.94214  -3.04504 H   0  0  0  0  0  0
  10.26675  -7.03928  -3.37008 H   0  0  0  0  0  0
   9.79941  -6.32303  -0.59866 H   0  0  0  0  0  0
  11.48584  -6.36014  -0.70338 H   0  0  0  0  0  0
  11.59721  -8.69449  -3.07398 H   0  0  0  0  0  0
   9.82394  -8.21725   0.85347 H   0  0  0  0  0  0
  11.48053  -8.54090   0.76767 H   0  0  0  0  0  0
  11.11732 -10.87873  -0.05220 H   0  0  0  0  0  0
   9.50883 -10.57742  -0.47453 H   0  0  0  0  0  0
  10.00617  -9.77768   2.27383 H   0  0  0  0  0  0
  10.35488 -12.64263   2.82285 H   0  0  0  0  0  0
  10.65955 -12.78926   1.16693 H   0  0  0  0  0  0
   7.81833 -11.74291   2.27648 H   0  0  0  0  0  0
   8.12300 -11.88954   0.62056 H   0  0  0  0  0  0
   9.21637  -9.82191  -2.00959 H   0  0  0  0  0  0
   9.25602  -8.42736  -2.96356 H   0  0  0  0  0  0
   8.14059  -7.12870  -0.91487 H   0  0  0  0  0  0
   7.92937  -8.63116  -0.17028 H   0  0  0  0  0  0
   7.12761  -9.24346  -2.71197 H   0  0  0  0  0  0
   5.58266  -8.04343  -0.09030 H   0  0  0  0  0  0
   4.61178  -8.72715  -1.29293 H   0  0  0  0  0  0
   6.45813  -6.14727  -1.87509 H   0  0  0  0  0  0
   5.48725  -6.83099  -3.07772 H   0  0  0  0  0  0
  12.54890  -6.45853  -0.88980 H   0  0  0  0  0  0
  13.02915  -6.51021  -2.50939 H   0  0  0  0  0  0
  14.73549  -5.92144  -0.22831 H   0  0  0  0  0  0
  15.19491  -5.88778  -1.85441 H   0  0  0  0  0  0
  16.61510  -7.55596  -0.63629 H   0  0  0  0  0  0
  15.00501  -8.16429   1.18690 H   0  0  0  0  0  0
  15.53015  -9.57832   0.42457 H   0  0  0  0  0  0
  12.77447  -8.66164   0.62712 H   0  0  0  0  0  0
  13.29261 -10.11111  -0.07070 H   0  0  0  0  0  0
  13.86240  -8.77200  -3.58137 H   0  0  0  0  0  0
  14.02307 -10.15727  -2.62660 H   0  0  0  0  0  0
  16.04522  -8.11473  -3.03505 H   0  0  0  0  0  0
  16.22851  -9.53353  -2.13517 H   0  0  0  0  0  0
  10.73254 -10.69442  -2.12410 H   0  0  0  0  0  0
  1  2  1  0  0  0
  2  3  1  0  0  0
  3  1  1  0  0  0
  3  4  1  0  0  0
  4  5  1  0  0  0
  5  6  1  0  0  0
  7  6  1  0  0  0
  6  8  1  0  0  0
  8  9  1  0  0  0
  9 10  1  0  0  0
 10 11  1  0  0  0
 11 12  1  0  0  0
 12 10  1  0  0  0
  6 13  1  0  0  0
 13 14  1  0  0  0
 14 15  1  0  0  0
 15 16  1  0  0  0
 16 17  1  0  0  0
 17 15  1  0  0  0
  7 18  1  0  0  0
 18 19  1  0  0  0
 19 20  1  0  0  0
 20 21  1  0  0  0
 21 22  1  0  0  0
 22 23  1  0  0  0
 23 18  1  0  0  0
 18 24  1  0  0  0
 24 25  1  0  0  0
 25 21  1  0  0  0
  7 26  1  0  0  0
 27  1  1  0  0  0
 28  1  1  0  0  0
 29  2  1  0  0  0
 30  2  1  0  0  0
 31  3  1  0  0  0
 32  4  1  0  0  0
 33  4  1  0  0  0
 34  5  1  0  0  0
 35  5  1  0  0  0
 36  7  1  0  0  0
 37  8  1  0  0  0
 38  8  1  0  0  0
 39  9  1  0  0  0
 40  9  1  0  0  0
 41 10  1  0  0  0
 42 11  1  0  0  0
 43 11  1  0  0  0
 44 12  1  0  0  0
 45 12  1  0  0  0
 46 13  1  0  0  0
 47 13  1  0  0  0
 48 14  1  0  0  0
 49 14  1  0  0  0
 50 15  1  0  0  0
 51 16  1  0  0  0
 52 16  1  0  0  0
 53 17  1  0  0  0
 54 17  1  0  0  0
 55 19  1  0  0  0
 56 19  1  0  0  0
 57 20  1  0  0  0
 58 20  1  0  0  0
 59 21  1  0  0  0
 60 22  1  0  0  0
 61 22  1  0  0  0
 62 23  1  0  0  0
 63 23  1  0  0  0
 64 24  1  0  0  0
 65 24  1  0  0  0
 66 25  1  0  0  0
 67 25  1  0  0  0
 68 26  1  0  0  0
M  END
