CIP:2S 5S 7S;
__Jmol-14_06031715043D 1   1.00000     0.00000     0
Jmol version 14.17.2  2017-05-27 15:31 EXTRACT: ({0:25})
 26 27  0  0  0  0              1 V2000
   1.07462   0.98401   0.60059 C   0  0  0  0  0  0
   0.69061   0.63826   2.08579 C   0  0  0  0  0  0
   1.29037   1.10504   2.86716 H   0  0  0  0  0  0
  -0.82990   0.99542   2.07436 C   0  0  0  0  0  0
  -1.30895   0.55401   0.64700 C   0  0  0  0  0  0
  -1.68271   1.41170   0.08766 H   0  0  0  0  0  0
   0.00160   0.00460  -0.00124 C   0  0  0  0  0  0
  -0.00573  -0.10599  -1.08561 H   0  0  0  0  0  0
   0.31755  -1.25852   0.80920 C   0  0  0  0  0  0
   0.71450  -0.89343   2.01167 C   0  0  0  0  0  0
  -2.37181  -0.54374   0.72485 C   0  0  0  0  0  0
  -3.61472   0.02011   1.22013 O   0  0  0  0  0  0
  -4.65569  -0.81761   1.34826 C   0  0  0  0  0  0
  -4.53224  -1.98357   1.05630 O   0  0  0  0  0  0
  -5.97816  -0.30403   1.85635 C   0  0  0  0  0  0
  -7.16647  -1.65880   1.91550 Cl  0  0  0  0  0  0
   2.09441   0.68906   0.35341 H   0  0  0  0  0  0
   0.87612   2.02607   0.34972 H   0  0  0  0  0  0
  -1.36166   0.43200   2.84096 H   0  0  0  0  0  0
  -0.97294   2.06628   2.21895 H   0  0  0  0  0  0
   0.22571  -2.27493   0.45587 H   0  0  0  0  0  0
   1.00705  -1.55986   2.80965 H   0  0  0  0  0  0
  -2.53350  -0.96397  -0.26785 H   0  0  0  0  0  0
  -2.03416  -1.32917   1.40114 H   0  0  0  0  0  0
  -5.84760   0.10865   2.85681 H   0  0  0  0  0  0
  -6.34697   0.47379   1.18775 H   0  0  0  0  0  0
  1  7  1  0  0  0
  1  2  1  0  0  0
  1 17  1  0  0  0
  1 18  1  0  0  0
  2  3  1  0  0  0
  2 10  1  0  0  0
  2  4  1  0  0  0
  4  5  1  0  0  0
  4 19  1  0  0  0
  4 20  1  0  0  0
  5  6  1  0  0  0
  5  7  1  0  0  0
  5 11  1  0  0  0
  7  8  1  0  0  0
  7  9  1  0  0  0
  9 10  2  0  0  0
  9 21  1  0  0  0
 10 22  1  0  0  0
 11 12  1  0  0  0
 11 23  1  0  0  0
 11 24  1  0  0  0
 12 13  1  0  0  0
 13 14  2  0  0  0
 13 15  1  0  0  0
 15 16  1  0  0  0
 15 25  1  0  0  0
 15 26  1  0  0  0
M  END
