CIP:EE;
__Jmol-14_05291710533D 1   1.00000     0.00000     0
Jmol version 14.17.2  2017-05-27 15:31 EXTRACT: ({0:23})
 24 24  0  0  0  0              1 V2000
  -0.01840   1.50280   0.01030 C   0  0  0  0  0  0
   0.00210  -0.00410   0.00201 C   0  0  0  0  0  0
   0.00580  -0.68890  -1.19570 C   0  0  0  0  0  0
   0.02450  -2.07220  -1.20510 C   0  0  0  0  0  0
   0.03960  -2.77840  -0.01500 C   0  0  0  0  0  0
   0.03610  -2.10640   1.18940 C   0  0  0  0  0  0
   0.02310  -0.71010   1.20620 C   0  0  0  0  0  0
   0.02530  -0.03600   2.39930 N   0  0  0  0  0  0
   0.04400  -0.66590   3.46720 N   0  0  0  0  0  0
   0.04660   0.14080   4.89510 P   0  0  0  0  0  0
   0.86310   1.44420   4.74880 O   0  0  0  0  0  0
  -1.40560   0.48490   5.29480 O   0  5  0  0  0  0
   0.71150  -0.78420   6.03290 O   0  0  0  0  0  0
   2.11870  -1.01600   6.12330 C   0  0  0  0  0  0
   1.00420   1.88010   0.00260 H   0  0  0  0  0  0
  -0.54550   1.86390  -0.87280 H   0  0  0  0  0  0
  -0.52860   1.85430   0.90710 H   0  0  0  0  0  0
  -0.00640  -0.14391  -2.12800 H   0  0  0  0  0  0
   0.02690  -2.60340  -2.14540 H   0  0  0  0  0  0
   0.05380  -3.85820  -0.02940 H   0  0  0  0  0  0
   0.04760  -2.65870   2.11740 H   0  0  0  0  0  0
   2.46890  -1.48780   5.20530 H   0  0  0  0  0  0
   2.63500  -0.06640   6.26380 H   0  0  0  0  0  0
   2.32530  -1.67061   6.97000 H   0  0  0  0  0  0
  1  2  1  0  0  0
  1 15  1  0  0  0
  1 16  1  0  0  0
  1 17  1  0  0  0
  2  7  2  0  0  0
  2  3  1  0  0  0
  3  4  2  0  0  0
  3 18  1  0  0  0
  4  5  1  0  0  0
  4 19  1  0  0  0
  5  6  2  0  0  0
  5 20  1  0  0  0
  6  7  1  0  0  0
  6 21  1  0  0  0
  7  8  1  0  0  0
  8  9  2  0  0  0
  9 10  1  0  0  0
 10 11  2  0  0  0
 10 12  1  0  0  0
 10 13  1  0  0  0
 13 14  1  0  0  0
 14 22  1  0  0  0
 14 23  1  0  0  0
 14 24  1  0  0  0
M  END
