CIP:2R 3S 4S 5R 6R;
__Jmol-14_06031715033D 1   1.00000     0.00000     0
Jmol version 14.17.2  2017-05-27 15:31 EXTRACT: ({0:22})
 23 22  0  0  0  0              1 V2000
  -9.80848  10.37730   1.22278 C   0  0  0  0  0  0
 -11.04011   9.66699   0.72134 C   0  0  0  0  0  0
 -12.27105  10.55107   0.93151 C   0  0  0  0  0  0
 -13.48667   9.66672   1.21923 C   0  0  0  0  0  0
 -14.80108  10.39401   0.92350 C   0  0  0  0  0  0
 -15.97526   9.46289   1.22609 C   0  0  0  0  0  0
 -17.25759  10.25539   1.27413 C   0  0  0  0  0  0
 -11.24797   8.15752   1.61176 Cl  0  0  0  0  0  0
 -11.99014  11.63698   2.29833 Cl  0  0  0  0  0  0
 -13.39595   8.18994   0.24303 Cl  0  0  0  0  0  0
 -14.91910  11.83849   1.93362 Cl  0  0  0  0  0  0
 -16.09082   8.23746  -0.03891 Cl  0  0  0  0  0  0
  -8.59950   9.75408   1.17440 O   0  0  0  0  0  0
  -9.89789  11.48844   1.69299 O   0  0  0  0  0  0
 -18.43780   9.66020   0.95447 O   0  0  0  0  0  0
 -17.23521  11.41912   1.60388 O   0  0  0  0  0  0
 -10.92234   9.45301  -0.36672 H   0  0  0  0  0  0
 -12.45992  11.14993   0.01001 H   0  0  0  0  0  0
 -14.82736  10.68562  -0.15264 H   0  0  0  0  0  0
 -15.81028   8.97413   2.21464 H   0  0  0  0  0  0
 -13.48097   9.57112   2.32605 H   0  0  0  0  0  0
  -7.77537  10.22008   1.53170 H   0  0  0  0  0  0
 -19.29870  10.19078   0.99231 H   0  0  0  0  0  0
  1  2  1  0  0  0
  2  3  1  0  0  0
  3  4  1  0  0  0
  4  5  1  0  0  0
  5  6  1  0  0  0
  6  7  1  0  0  0
  2  8  1  0  0  0
  3  9  1  0  0  0
  4 10  1  0  0  0
  5 11  1  0  0  0
  6 12  1  0  0  0
  1 13  1  0  0  0
  1 14  2  0  0  0
  7 15  1  0  0  0
  7 16  2  0  0  0
 17  2  1  0  0  0
 18  3  1  0  0  0
 19  5  1  0  0  0
 20  6  1  0  0  0
 21  4  1  0  0  0
 22 13  1  0  0  0
 23 15  1  0  0  0
M  END
