CIP:2R 3R;
__Jmol-14_06031715033D 1   1.00000     0.00000     0
Jmol version 14.17.2  2017-05-27 15:31 EXTRACT: ({0:18})
 19 19  0  0  0  0              1 V2000
   2.65302  17.07315  -4.14764 C   0  0  0  0  0  0
   3.95916  17.87714  -4.17232 C   0  0  0  0  0  0
   4.03339  18.71847  -5.45106 C   0  0  0  0  0  0
   2.84099  19.68259  -5.51031 C   0  0  0  0  0  0
   1.53052  18.88144  -5.49241 C   0  0  0  0  0  0
   1.45379  18.03150  -4.21423 C   0  0  0  0  0  0
   5.06043  16.98237  -4.13587 O   0  0  0  0  0  0
   5.53824  19.64333  -5.45842 Cl  0  0  0  0  0  0
   3.98930  18.55335  -3.28742 H   0  0  0  0  0  0
   3.99479  18.03969  -6.33485 H   0  0  0  0  0  0
   2.62643  16.38627  -5.02036 H   0  0  0  0  0  0
   2.60208  16.48169  -3.20848 H   0  0  0  0  0  0
   2.87146  20.36223  -4.63206 H   0  0  0  0  0  0
   2.89617  20.28116  -6.44470 H   0  0  0  0  0  0
   0.66973  19.58331  -5.52022 H   0  0  0  0  0  0
   1.49452  18.21488  -6.38055 H   0  0  0  0  0  0
   0.51198  17.44228  -4.22031 H   0  0  0  0  0  0
   1.46741  18.69982  -3.32681 H   0  0  0  0  0  0
   5.72503  17.02873  -3.37411 H   0  0  0  0  0  0
  1  2  1  0  0  0
  2  3  1  0  0  0
  3  4  1  0  0  0
  4  5  1  0  0  0
  5  6  1  0  0  0
  6  1  1  0  0  0
  2  7  1  0  0  0
  3  8  1  0  0  0
  9  2  1  0  0  0
 10  3  1  0  0  0
 11  1  1  0  0  0
 12  1  1  0  0  0
 13  4  1  0  0  0
 14  4  1  0  0  0
 15  5  1  0  0  0
 16  5  1  0  0  0
 17  6  1  0  0  0
 18  6  1  0  0  0
 19  7  1  0  0  0
M  END
