CIP:1R;
__Jmol-14_06031715043D 1   1.00000     0.00000     0
Jmol version 14.17.2  2017-05-27 15:31 EXTRACT: ({0:8})
  9  8  0  0  0  0              1 V2000
   0.03091  -1.19768   1.82193 C   0  0  0  0  0  0
   1.15240   0.10046   1.36824 Cl  0  0  0  0  0  0
   0.60880  -1.90991   2.89937 O   0  0  0  0  0  0
  -1.32120  -0.64256   2.22964 C   0  0  0  0  0  0
  -0.06549  -1.87748   0.96831 H   0  0  0  0  0  0
   1.55962  -1.91525   2.71319 H   0  0  0  0  0  0
  -1.21980   0.16031   2.96990 H   0  0  0  0  0  0
  -1.93146  -1.42283   2.70000 H   0  0  0  0  0  0
  -1.86494  -0.24923   1.36802 H   0  0  0  0  0  0
  1  2  1  0  0  0
  1  3  1  0  0  0
  1  4  1  0  0  0
  1  5  1  0  0  0
  3  6  1  0  0  0
  4  7  1  0  0  0
  4  8  1  0  0  0
  4  9  1  0  0  0
M  END
