CIP:2R 3s 4R 5r 6R 9S 13S;
__Jmol-14_06031715033D 1   1.00000     0.00000     0
Jmol version 14.17.2  2017-05-27 15:31 EXTRACT: ({0:35})
 36 35  0  0  0  0              1 V2000
  11.70598  -6.22597 -24.99053 C   0  0  0  0  0  0
  12.63510  -5.32432 -25.85003 C   0  0  0  0  0  0
  11.96438  -4.45865 -26.99962 C   0  0  0  0  0  0
  10.73136  -3.55389 -26.55500 C   0  0  0  0  0  0
   9.31845  -4.16639 -26.15007 C   0  0  0  0  0  0
   8.27346  -3.04569 -25.73509 C   0  0  0  0  0  0
   6.92731  -3.55170 -25.14458 C   0  0  0  0  0  0
  13.85866  -6.43967 -26.49173 Cl  0  0  0  0  0  0
  13.07054  -3.62194 -27.77898 C   0  0  0  0  0  0
  13.59821  -2.34684 -27.06536 C   0  0  0  0  0  0
  12.59032  -3.21943 -29.43469 Cl  0  0  0  0  0  0
  10.46369  -2.57922 -27.56411 O   0  0  0  0  0  0
   8.76637  -5.22261 -27.19014 C   0  0  0  0  0  0
   7.70583  -6.43643 -26.46119 Cl  0  0  0  0  0  0
   8.09647  -4.64264 -28.46548 C   0  0  0  0  0  0
   8.92170  -1.93552 -24.51479 Cl  0  0  0  0  0  0
  11.61028  -5.17697 -27.73418 H   0  0  0  0  0  0
   9.47247  -4.71203 -25.22641 H   0  0  0  0  0  0
  12.29275  -6.69874 -24.18917 H   0  0  0  0  0  0
  11.25995  -7.00472 -25.62661 H   0  0  0  0  0  0
  10.90750  -5.61276 -24.54735 H   0  0  0  0  0  0
  13.03436  -4.52504 -25.20835 H   0  0  0  0  0  0
  11.12698  -3.19807 -25.59225 H   0  0  0  0  0  0
   8.08375  -2.55953 -26.70342 H   0  0  0  0  0  0
   6.25611  -2.69659 -24.97647 H   0  0  0  0  0  0
   7.11529  -4.06358 -24.18926 H   0  0  0  0  0  0
   6.45793  -4.25303 -25.85014 H   0  0  0  0  0  0
  13.91561  -4.32587 -27.79778 H   0  0  0  0  0  0
  12.80482  -1.58530 -27.04108 H   0  0  0  0  0  0
  14.46742  -1.95338 -27.61277 H   0  0  0  0  0  0
  13.89607  -2.59889 -26.03689 H   0  0  0  0  0  0
  11.32228  -2.15908 -27.85790 H   0  0  0  0  0  0
   9.69479  -5.70605 -27.52828 H   0  0  0  0  0  0
   7.13783  -4.17535 -28.19596 H   0  0  0  0  0  0
   7.91900  -5.45334 -29.18747 H   0  0  0  0  0  0
   8.75802  -3.88835 -28.91649 H   0  0  0  0  0  0
  1  2  1  0  0  0
  2  3  1  0  0  0
  3  4  1  0  0  0
  4  5  1  0  0  0
  5  6  1  0  0  0
  6  7  1  0  0  0
  2  8  1  0  0  0
  3  9  1  0  0  0
  9 10  1  0  0  0
  9 11  1  0  0  0
  4 12  1  0  0  0
  5 13  1  0  0  0
 13 14  1  0  0  0
 13 15  1  0  0  0
  6 16  1  0  0  0
  3 17  1  0  0  0
  5 18  1  0  0  0
 19  1  1  0  0  0
 20  1  1  0  0  0
 21  1  1  0  0  0
 22  2  1  0  0  0
 23  4  1  0  0  0
 24  6  1  0  0  0
 25  7  1  0  0  0
 26  7  1  0  0  0
 27  7  1  0  0  0
 28  9  1  0  0  0
 29 10  1  0  0  0
 30 10  1  0  0  0
 31 10  1  0  0  0
 32 12  1  0  0  0
 33 13  1  0  0  0
 34 15  1  0  0  0
 35 15  1  0  0  0
 36 15  1  0  0  0
M  END
