CIP:R;
__Jmol-14_05291710533D 1   1.00000     0.00000     0
Jmol version 14.17.2  2017-05-27 15:31 EXTRACT: ({0:18})
 19 19  0  0  0  0              1 V2000
   1.13410  -1.66740   0.44410 S   0  0  0  0  0  0
   0.69740  -2.96880  -0.02080 O   0  0  0  0  0  0
   1.66590  -1.86590   2.21770 S   0  0  0  0  0  0
   2.44730  -1.24010  -0.48090 O   0  0  0  0  0  0
   2.57290   0.16571  -0.49240 C   0  0  0  0  0  0
  -0.25900  -0.51240   0.25680 C   0  0  0  0  0  0
  -0.44011   0.60721   1.08511 C   0  0  0  0  0  0
  -1.48550   1.50440   0.85260 C   0  0  0  0  0  0
  -2.36140   1.29660  -0.21081 C   0  0  0  0  0  0
  -2.19750   0.19080  -1.04120 C   0  0  0  0  0  0
  -1.15360  -0.70550  -0.80801 C   0  0  0  0  0  0
   2.71312   0.52977   0.53609 H   0  0  0  0  0  0
   1.66204   0.61179  -0.91823 H   0  0  0  0  0  0
   3.44144   0.45129  -1.10402 H   0  0  0  0  0  0
   0.24827   0.77950   1.92561 H   0  0  0  0  0  0
  -1.61728   2.37630   1.51019 H   0  0  0  0  0  0
  -3.18205   2.00572  -0.39434 H   0  0  0  0  0  0
  -2.88977   0.02408  -1.87963 H   0  0  0  0  0  0
  -1.02975  -1.57645  -1.46838 H   0  0  0  0  0  0
  2  1  2  0  0  0
  3  1  2  0  0  0
  4  1  1  0  0  0
  6  1  1  0  0  0
  5  4  1  0  0  0
  7  6  2  0  0  0
 11  6  1  0  0  0
  8  7  1  0  0  0
  9  8  2  0  0  0
 10  9  1  0  0  0
 11 10  2  0  0  0
 12  5  1  0  0  0
 13  5  1  0  0  0
 14  5  1  0  0  0
 15  7  1  0  0  0
 16  8  1  0  0  0
 17  9  1  0  0  0
 18 10  1  0  0  0
 19 11  1  0  0  0
M  END
