CIP:2R 3s 4S 6R 8S 9R;
__Jmol-14_06031715043D 1   1.00000     0.00000     0
Jmol version 14.17.2  2017-05-27 15:31 EXTRACT: ({0:35})
 36 35  0  0  0  0              1 V2000
  -4.93090  14.02594  15.07378 C   0  0  0  0  0  0
  -5.23607  15.37742  15.76580 C   0  0  0  0  0  0
  -4.05901  16.42392  15.96265 C   0  0  0  0  0  0
  -3.02800  16.52846  14.76160 C   0  0  0  0  0  0
  -1.89564  15.42515  14.55270 C   0  0  0  0  0  0
  -1.11170  15.64383  13.18922 C   0  0  0  0  0  0
  -0.06459  14.55469  12.81529 C   0  0  0  0  0  0
  -4.67588  17.82033  16.39677 C   0  0  0  0  0  0
  -0.92559  15.19468  15.78414 C   0  0  0  0  0  0
  -0.24468  16.45857  16.36749 C   0  0  0  0  0  0
  -5.30816  18.67722  15.26403 C   0  0  0  0  0  0
  -5.97988  14.96353  17.32027 Cl  0  0  0  0  0  0
  -2.36956  17.79690  14.76196 O   0  0  0  0  0  0
  -2.20575  15.72468  11.79652 Cl  0  0  0  0  0  0
  -1.62846  14.23410  17.09047 Cl  0  0  0  0  0  0
  -3.53352  18.81599  17.30935 Cl  0  0  0  0  0  0
  -3.49695  16.09432  16.82995 H   0  0  0  0  0  0
  -5.86744  13.46654  14.93255 H   0  0  0  0  0  0
  -4.24448  13.43910  15.70184 H   0  0  0  0  0  0
  -4.46396  14.21213  14.09536 H   0  0  0  0  0  0
  -5.88395  15.93535  15.07374 H   0  0  0  0  0  0
  -3.72253  16.35537  13.92633 H   0  0  0  0  0  0
  -2.44550  14.47492  14.48392 H   0  0  0  0  0  0
  -0.58811  16.59038  13.38901 H   0  0  0  0  0  0
   0.46542  14.85469  11.89928 H   0  0  0  0  0  0
  -0.57707  13.59635  12.64517 H   0  0  0  0  0  0
   0.65801  14.44320  13.63714 H   0  0  0  0  0  0
  -5.51002  17.50917  17.04283 H   0  0  0  0  0  0
  -0.12491  14.60875  15.30918 H   0  0  0  0  0  0
   0.55062  16.15765  17.06530 H   0  0  0  0  0  0
  -0.99163  17.06394  16.90192 H   0  0  0  0  0  0
   0.19036  17.05141  15.54940 H   0  0  0  0  0  0
  -4.51580  19.03976  14.59266 H   0  0  0  0  0  0
  -5.83636  19.53554  15.70482 H   0  0  0  0  0  0
  -6.01975  18.06271  14.69303 H   0  0  0  0  0  0
  -3.04491  18.52305  14.89089 H   0  0  0  0  0  0
  1  2  1  0  0  0
  2  3  1  0  0  0
  3  4  1  0  0  0
  4  5  1  0  0  0
  5  6  1  0  0  0
  6  7  1  0  0  0
  3  8  1  0  0  0
  5  9  1  0  0  0
  9 10  1  0  0  0
  8 11  1  0  0  0
  2 12  1  0  0  0
  4 13  1  0  0  0
  6 14  1  0  0  0
  9 15  1  0  0  0
  8 16  1  0  0  0
  3 17  1  0  0  0
 18  1  1  0  0  0
 19  1  1  0  0  0
 20  1  1  0  0  0
 21  2  1  0  0  0
 22  4  1  0  0  0
 23  5  1  0  0  0
 24  6  1  0  0  0
 25  7  1  0  0  0
 26  7  1  0  0  0
 27  7  1  0  0  0
 28  8  1  0  0  0
 29  9  1  0  0  0
 30 10  1  0  0  0
 31 10  1  0  0  0
 32 10  1  0  0  0
 33 11  1  0  0  0
 34 11  1  0  0  0
 35 11  1  0  0  0
 36 13  1  0  0  0
M  END
