CIP:SR;
__Jmol-14_05291710533D 1   1.00000     0.00000     0
Jmol version 14.17.2  2017-05-27 15:31 EXTRACT: ({0:13})
 14 15  0  0  0  0              1 V2000
   0.70790   1.15420   0.48440 C   0  0  0  0  0  0
  -0.54901   0.96060   1.15230 C   0  0  0  0  0  0
  -1.38040   0.14461   0.51010 C   0  0  0  0  0  0
  -0.82381  -0.36870  -0.70610 C   0  0  0  0  0  0
   0.56010   0.30451  -0.79390 C   0  0  0  0  0  0
   1.66490  -0.02040   0.22051 C   0  0  0  0  0  0
   1.03590   2.16951   0.24931 H   0  0  0  0  0  0
   0.83510   0.85050  -1.69880 H   0  0  0  0  0  0
  -0.80111   1.44329   2.10804 H   0  0  0  0  0  0
  -2.38713  -0.10883   0.87380 H   0  0  0  0  0  0
  -1.45538  -0.17871  -1.58645 H   0  0  0  0  0  0
  -0.77426  -1.46730  -0.73088 H   0  0  0  0  0  0
   1.68452  -0.93809   0.82668 H   0  0  0  0  0  0
   2.73803   0.10310   0.01277 H   0  0  0  0  0  0
  1  2  1  0  0  0
  1  6  1  0  0  0
  2  3  2  0  0  0
  3  4  1  0  0  0
  4  5  1  0  0  0
  5  6  1  0  0  0
  1  5  1  0  0  0
  1  7  1  0  0  0
  5  8  1  0  0  0
  9  2  1  0  0  0
 10  3  1  0  0  0
 11  4  1  0  0  0
 12  4  1  0  0  0
 13  6  1  0  0  0
 14  6  1  0  0  0
M  END
