CIP:RsS;
__Jmol-14_05291710533D 1   1.00000     0.00000     0
Jmol version 14.17.2  2017-05-27 15:31 EXTRACT: ({0:16})
 17 16  0  0  0  0              1 V2000
   7.76870 -12.26080  -1.49171 C   0  0  0  0  0  0
   8.58690 -11.19610  -0.75990 C   0  0  0  0  0  0
   9.95350 -11.76790  -0.37851 C   0  0  0  0  0  0
  10.78380 -10.68730   0.31560 C   0  0  0  0  0  0
  12.15990 -11.24750   0.67730 C   0  0  0  0  0  0
   7.72920 -10.70000   0.70270 Cl  0  0  0  0  0  0
  10.79510 -12.30580  -1.84000 Cl  0  0  0  0  0  0
   9.95710 -10.16660   1.78710 Cl  0  0  0  0  0  0
   8.73030 -10.31690  -1.43090 H   0  0  0  0  0  0
  10.90960  -9.82050  -0.37440 H   0  0  0  0  0  0
   7.44560 -11.86560  -2.47850 H   0  0  0  0  0  0
   8.39240 -13.16790  -1.64240 H   0  0  0  0  0  0
   6.87420 -12.52100  -0.88610 H   0  0  0  0  0  0
   9.74540 -12.52780   0.40480 H   0  0  0  0  0  0
  12.94960 -10.60350   0.23451 H   0  0  0  0  0  0
  12.27330 -11.26540   1.78250 H   0  0  0  0  0  0
  12.25620 -12.27950   0.27690 H   0  0  0  0  0  0
  1  2  1  0  0  0
  2  3  1  0  0  0
  3  4  1  0  0  0
  4  5  1  0  0  0
  2  6  1  0  0  0
  3  7  1  0  0  0
  4  8  1  0  0  0
  9  2  1  0  0  0
 10  4  1  0  0  0
 11  1  1  0  0  0
 12  1  1  0  0  0
 13  1  1  0  0  0
 14  3  1  0  0  0
 15  5  1  0  0  0
 16  5  1  0  0  0
 17  5  1  0  0  0
M  END
