CIP:1R 3R 5R 7S 9R;
__Jmol-14_06031715033D 1   1.00000     0.00000     0
Jmol version 14.17.2  2017-05-27 15:31 EXTRACT: ({0:39})
 40 39  0  0  0  0              1 V2000
  -3.72799   1.63470   0.74448 C   0  0  0  0  0  0
  -2.88125   0.66030  -0.04472 N   0  0  0  0  0  0
  -1.55084   1.07592  -0.65593 C   0  0  0  0  0  0
  -0.39773   0.19673  -0.21337 N   0  0  0  0  0  0
  -0.30696  -0.20513   1.23742 C   0  0  0  0  0  0
   0.25335  -1.63432   1.45292 C   0  0  0  0  0  0
  -3.66329  -0.40666  -0.77205 C   0  0  0  0  0  0
  -2.88995  -1.70829  -1.09242 C   0  0  0  0  0  0
   0.90708   0.31248  -0.96660 C   0  0  0  0  0  0
   1.50125   1.59790  -0.81222 O   0  0  0  0  0  0
  -4.19842   0.11735  -1.98688 O   0  0  0  0  0  0
   0.79409  -0.01793  -2.47504 C   0  0  0  0  0  0
  -1.24525   2.53809  -0.67191 C   0  0  0  0  0  0
  -1.59771   3.25425  -1.63928 O   0  0  0  0  0  0
  -0.57922   3.18201   0.31187 O   0  0  0  0  0  0
   0.46732   0.70864   2.00955 O   0  0  0  0  0  0
  -3.93216   2.87764   0.07619 O   0  0  0  0  0  0
  -3.18870   1.89101   2.16981 C   0  0  0  0  0  0
  -4.70323   1.13328   0.83105 H   0  0  0  0  0  0
  -1.69381   0.87830  -1.72855 H   0  0  0  0  0  0
  -1.35053  -0.18750   1.58475 H   0  0  0  0  0  0
   0.18846  -1.89674   2.51918 H   0  0  0  0  0  0
   1.30440  -1.66866   1.13022 H   0  0  0  0  0  0
  -0.33512  -2.35183   0.86229 H   0  0  0  0  0  0
  -4.45396  -0.69309  -0.06298 H   0  0  0  0  0  0
  -2.07365  -1.48623  -1.79551 H   0  0  0  0  0  0
  -3.57517  -2.43989  -1.54544 H   0  0  0  0  0  0
  -2.47129  -2.12403  -0.16405 H   0  0  0  0  0  0
   1.55408  -0.45036  -0.50894 H   0  0  0  0  0  0
   1.57634   1.81577   0.16086 H   0  0  0  0  0  0
  -4.71387  -0.59730  -2.45974 H   0  0  0  0  0  0
   0.08256   0.67377  -2.94967 H   0  0  0  0  0  0
   0.43840  -1.05150  -2.59841 H   0  0  0  0  0  0
   1.78103   0.08916  -2.94883 H   0  0  0  0  0  0
  -0.34177   2.53247   1.03418 H   0  0  0  0  0  0
   0.11612   1.63588   1.87965 H   0  0  0  0  0  0
  -4.28101   2.70728  -0.84538 H   0  0  0  0  0  0
  -3.91600   2.49295   2.73435 H   0  0  0  0  0  0
  -2.23336   2.43285   2.10851 H   0  0  0  0  0  0
  -3.03280   0.92972   2.68130 H   0  0  0  0  0  0
  1  2  1  0  0  0
  2  3  1  0  0  0
  3  4  1  0  0  0
  4  5  1  0  0  0
  5  6  1  0  0  0
  7  8  1  0  0  0
  2  7  1  0  0  0
  9 10  1  0  0  0
  4  9  1  0  0  0
  7 11  1  0  0  0
  9 12  1  0  0  0
  3 13  1  0  0  0
 13 14  2  0  0  0
 13 15  1  0  0  0
  5 16  1  0  0  0
  1 17  1  0  0  0
  1 18  1  0  0  0
 19  1  1  0  0  0
 20  3  1  0  0  0
 21  5  1  0  0  0
 22  6  1  0  0  0
 23  6  1  0  0  0
 24  6  1  0  0  0
 25  7  1  0  0  0
 26  8  1  0  0  0
 27  8  1  0  0  0
 28  8  1  0  0  0
 29  9  1  0  0  0
 30 10  1  0  0  0
 31 11  1  0  0  0
 32 12  1  0  0  0
 33 12  1  0  0  0
 34 12  1  0  0  0
 35 15  1  0  0  0
 36 16  1  0  0  0
 37 17  1  0  0  0
 38 18  1  0  0  0
 39 18  1  0  0  0
 40 18  1  0  0  0
M  END
