CIP:EEEE;
__Jmol-14_05291710533D 1   1.00000     0.00000     0
Jmol version 14.17.2  2017-05-27 15:31 EXTRACT: ({0:19})
 20 20  0  0  0  0              1 V2000
  14.07390  -6.00250   0.00000 C   0  0  0  0  0  0
  16.10680  -3.96960   0.00000 C   0  0  0  0  0  0
  18.88370  -4.71370   0.00000 C   0  0  0  0  0  0
  21.37350  -3.27630   0.00000 C   0  0  0  0  0  0
  22.81100  -5.76600   0.00000 C   0  0  0  0  0  0
  20.32120  -7.20350   0.00000 C   0  0  0  0  0  0
  25.58790  -6.51010   0.00000 C   0  0  0  0  0  0
  27.62080  -4.47720   0.00000 C   0  0  0  0  0  0
  14.18125  -6.62847   0.89813 H   0  0  0  0  0  0
  14.18125  -6.62847  -0.89813 H   0  0  0  0  0  0
  13.08127  -5.52849   0.00000 H   0  0  0  0  0  0
  15.82210  -2.90708   0.00000 H   0  0  0  0  0  0
  21.55576  -2.59609   0.84504 H   0  0  0  0  0  0
  21.55576  -2.59609  -0.84504 H   0  0  0  0  0  0
  20.13894  -7.88371   0.84504 H   0  0  0  0  0  0
  20.13894  -7.88371  -0.84504 H   0  0  0  0  0  0
  25.87260  -7.57262   0.00000 H   0  0  0  0  0  0
  27.51345  -3.85123   0.89813 H   0  0  0  0  0  0
  27.51345  -3.85123  -0.89813 H   0  0  0  0  0  0
  28.61343  -4.95121   0.00000 H   0  0  0  0  0  0
  1  2  1  0  0  0
  2  3  2  0  0  0
  3  4  1  0  0  0
  4  5  1  0  0  0
  5  6  1  0  0  0
  6  3  1  0  0  0
  5  7  2  0  0  0
  7  8  1  0  0  0
  9  1  1  0  0  0
 10  1  1  0  0  0
 11  1  1  0  0  0
 12  2  1  0  0  0
 13  4  1  0  0  0
 14  4  1  0  0  0
 15  6  1  0  0  0
 16  6  1  0  0  0
 17  7  1  0  0  0
 18  8  1  0  0  0
 19  8  1  0  0  0
 20  8  1  0  0  0
M  END
