CIP:5R 6S;
__Jmol-14_06031715043D 1   1.00000     0.00000     0
Jmol version 14.17.2  2017-05-27 15:31 EXTRACT: ({0:28})
 29 30  0  0  0  0              1 V2000
   0.87824  -2.44427  -0.45851 C   0  0  0  0  0  0
   2.18719  -2.84262   0.22512 C   0  0  0  0  0  0
   3.00773  -1.63264   0.67530 C   0  0  0  0  0  0
   2.19926  -0.56766   1.42311 C   0  0  0  0  0  0
   0.91080  -0.21246   0.67049 C   0  0  0  0  0  0
   0.04399  -1.46382   0.39294 C   0  0  0  0  0  0
  -1.20734  -1.02144  -0.39119 C   0  0  0  0  0  0
   0.09265   0.89106   1.35188 C   0  0  0  0  0  0
  -1.16518   1.17842   0.53310 C   0  0  0  0  0  0
  -1.94120  -0.01340   0.32993 O   0  0  0  0  0  0
  -0.41107  -2.16829   1.70691 C   0  0  0  0  0  0
   1.22501   0.20112  -0.29970 H   0  0  0  0  0  0
   0.29957  -3.34286  -0.68705 H   0  0  0  0  0  0
   1.11667  -1.98430  -1.42838 H   0  0  0  0  0  0
   2.78185  -3.45009  -0.45985 H   0  0  0  0  0  0
   1.98048  -3.48888   1.08708 H   0  0  0  0  0  0
   3.45138  -1.16880  -0.21458 H   0  0  0  0  0  0
   3.84374  -1.96438   1.29292 H   0  0  0  0  0  0
   2.81635   0.32438   1.54671 H   0  0  0  0  0  0
   1.97361  -0.91687   2.43753 H   0  0  0  0  0  0
  -1.88660  -1.86776  -0.55443 H   0  0  0  0  0  0
  -0.95086  -0.63006  -1.38064 H   0  0  0  0  0  0
   0.68408   1.80303   1.45273 H   0  0  0  0  0  0
  -0.18809   0.58348   2.36239 H   0  0  0  0  0  0
  -0.91597   1.61800  -0.43727 H   0  0  0  0  0  0
  -1.79805   1.90071   1.06344 H   0  0  0  0  0  0
  -0.97711  -1.50193   2.36565 H   0  0  0  0  0  0
   0.42141  -2.54583   2.30274 H   0  0  0  0  0  0
  -1.05479  -3.02300   1.49187 H   0  0  0  0  0  0
  1  2  1  0  0  0
  1  6  1  0  0  0
  2  3  1  0  0  0
  3  4  1  0  0  0
  4  5  1  0  0  0
  7  6  1  0  0  0
  6  5  1  0  0  0
  5  8  1  0  0  0
  7 10  1  0  0  0
  8  9  1  0  0  0
  9 10  1  0  0  0
  6 11  1  0  0  0
  5 12  1  0  0  0
  1 13  1  0  0  0
  1 14  1  0  0  0
  2 15  1  0  0  0
  2 16  1  0  0  0
  3 17  1  0  0  0
  3 18  1  0  0  0
  4 19  1  0  0  0
  4 20  1  0  0  0
  7 21  1  0  0  0
  7 22  1  0  0  0
  8 23  1  0  0  0
  8 24  1  0  0  0
  9 25  1  0  0  0
  9 26  1  0  0  0
 11 27  1  0  0  0
 11 28  1  0  0  0
 11 29  1  0  0  0
M  END
