CIP:2R 6S;
__Jmol-14_06031715043D 1   1.00000     0.00000     0
Jmol version 14.17.2  2017-05-27 15:31 EXTRACT: ({0:15})
 16 16  0  0  0  0              1 V2000
   0.03278  -1.42574  -0.85181 O   0  0  0  0  0  0
   0.66664  -2.37246  -1.73405 C   0  0  0  0  0  0
  -0.09326  -3.67745  -1.54187 C   0  0  0  0  0  0
  -1.35630  -3.29709  -0.80595 C   0  0  0  0  0  0
  -1.34406  -1.78611  -0.80161 C   0  0  0  0  0  0
   2.19613  -2.46394  -1.55474 C   0  0  0  0  0  0
   2.69163  -2.91903   0.10257 Cl  0  0  0  0  0  0
   2.76747  -1.27026  -1.87418 F   0  0  0  0  0  0
   0.48056  -2.00197  -2.75135 H   0  0  0  0  0  0
   0.46869  -4.42396  -0.96595 H   0  0  0  0  0  0
  -0.31381  -4.14198  -2.51041 H   0  0  0  0  0  0
  -1.30319  -3.66676   0.22176 H   0  0  0  0  0  0
  -2.26275  -3.70643  -1.25772 H   0  0  0  0  0  0
  -1.81649  -1.36325   0.08661 H   0  0  0  0  0  0
  -1.84632  -1.38239  -1.69166 H   0  0  0  0  0  0
   2.61322  -3.21335  -2.23872 H   0  0  0  0  0  0
  2  3  1  0  0  0
  2  1  1  0  0  0
  3  4  1  0  0  0
  4  5  1  0  0  0
  5  1  1  0  0  0
  2  6  1  0  0  0
  6  7  1  0  0  0
  6  8  1  0  0  0
  2  9  1  0  0  0
  3 10  1  0  0  0
  3 11  1  0  0  0
  4 12  1  0  0  0
  4 13  1  0  0  0
  5 14  1  0  0  0
  5 15  1  0  0  0
  6 16  1  0  0  0
M  END
