CIP:1S;
__Jmol-14_06031715043D 1   1.00000     0.00000     0
Jmol version 14.17.2  2017-05-27 15:31 EXTRACT: ({0:8})
  9  8  0  0  0  0              1 V2000
  -0.82052  -0.56539  -1.92124 C   0  0  0  0  0  0
  -1.92547  -1.80323  -1.29961 Cl  0  0  0  0  0  0
  -1.42765   0.03914  -3.04556 O   0  0  0  0  0  0
   0.51321  -1.16553  -2.32700 C   0  0  0  0  0  0
  -0.68536   0.19553  -1.14326 H   0  0  0  0  0  0
  -2.35447   0.18345  -2.78250 H   0  0  0  0  0  0
   1.17449  -0.38892  -2.71440 H   0  0  0  0  0  0
   0.38940  -1.89915  -3.13283 H   0  0  0  0  0  0
   1.01167  -1.65428  -1.48136 H   0  0  0  0  0  0
  1  2  1  0  0  0
  1  3  1  0  0  0
  1  4  1  0  0  0
  1  5  1  0  0  0
  3  6  1  0  0  0
  4  7  1  0  0  0
  4  8  1  0  0  0
  4  9  1  0  0  0
M  END
