CIP:RR;
__Jmol-14_05291710533D 1   1.00000     0.00000     0
Jmol version 14.17.2  2017-05-27 15:31 EXTRACT: ({0:20})
 21 20  0  0  0  0              1 V2000
   3.26254  -2.68787  -0.19344 C   0  0  0  0  0  0
   2.71782  -1.39867   0.48440 C   0  0  0  0  0  0
   2.91734  -1.42576   1.89596 O   0  0  0  0  0  0
   2.46575  -3.97248   0.12259 C   0  0  0  0  0  0
   2.42147  -4.33276   1.60033 C   0  0  0  0  0  0
   1.23231  -1.14139   0.24035 C   0  0  0  0  0  0
   3.35694  -2.51458  -1.71462 C   0  0  0  0  0  0
   4.28693  -2.84878   0.17400 H   0  0  0  0  0  0
   3.28157  -0.53303   0.10987 H   0  0  0  0  0  0
   3.84226  -1.68003   2.06963 H   0  0  0  0  0  0
   2.92312  -4.80996  -0.40870 H   0  0  0  0  0  0
   1.43966  -3.90009  -0.26293 H   0  0  0  0  0  0
   1.77344  -3.65668   2.16058 H   0  0  0  0  0  0
   3.42362  -4.30658   2.04527 H   0  0  0  0  0  0
   2.02323  -5.34082   1.73020 H   0  0  0  0  0  0
   0.94780  -0.16537   0.64898 H   0  0  0  0  0  0
   0.60737  -1.87651   0.76184 H   0  0  0  0  0  0
   0.97576  -1.15077  -0.81877 H   0  0  0  0  0  0
   2.37098  -2.36745  -2.17415 H   0  0  0  0  0  0
   3.80419  -3.39501  -2.18268 H   0  0  0  0  0  0
   3.97956  -1.65559  -1.97551 H   0  0  0  0  0  0
  2  1  1  0  0  0
  2  3  1  0  0  0
  1  4  1  0  0  0
  4  5  1  0  0  0
  2  6  1  0  0  0
  1  7  1  0  0  0
  1  8  1  0  0  0
  2  9  1  0  0  0
  3 10  1  0  0  0
  4 11  1  0  0  0
  4 12  1  0  0  0
  5 13  1  0  0  0
  5 14  1  0  0  0
  5 15  1  0  0  0
  6 16  1  0  0  0
  6 17  1  0  0  0
  6 18  1  0  0  0
  7 19  1  0  0  0
  7 20  1  0  0  0
  7 21  1  0  0  0
M  END
