CIP:2R;
__Jmol-14_06031715033D 1   1.00000     0.00000     0
Jmol version 14.17.2  2017-05-27 15:31 EXTRACT: ({0:21})
 22 22  0  0  0  0              1 V2000
  -0.54786   0.14432  -0.68798 C   0  0  0  0  0  0
  -1.80487  -0.39206   0.07950 C   0  0  0  0  0  0
  -2.83402   0.71875   0.42160 C   0  0  0  0  0  0
  -3.86547   1.11871  -0.64717 C   0  0  0  0  0  0
  -4.31276   0.32662   0.58940 C   0  0  0  0  0  0
   0.24308   1.22814   0.09877 C   0  0  0  0  0  0
   0.39985  -1.01040  -1.12328 C   0  0  0  0  0  0
  -1.44887  -1.02509   1.30744 O   0  0  0  0  0  0
  -0.94560   0.63262  -1.58985 H   0  0  0  0  0  0
  -2.26108  -1.11298  -0.61488 H   0  0  0  0  0  0
  -2.09754   1.25892   1.03464 H   0  0  0  0  0  0
  -3.87441   0.71052  -1.66858 H   0  0  0  0  0  0
  -4.16501   2.15823  -0.84636 H   0  0  0  0  0  0
  -4.67669  -0.71069   0.55021 H   0  0  0  0  0  0
  -4.96730   0.73702   1.37244 H   0  0  0  0  0  0
   1.03767   1.63916  -0.54128 H   0  0  0  0  0  0
   0.69180   0.77597   0.99554 H   0  0  0  0  0  0
  -0.44080   2.03588   0.39855 H   0  0  0  0  0  0
   0.84922  -1.47186  -0.23158 H   0  0  0  0  0  0
   1.19510  -0.60868  -1.76839 H   0  0  0  0  0  0
  -0.17468  -1.76712  -1.67760 H   0  0  0  0  0  0
  -0.78411  -1.75030   1.12818 H   0  0  0  0  0  0
  1  2  1  0  0  0
  2  3  1  0  0  0
  3  4  1  0  0  0
  4  5  1  0  0  0
  5  3  1  0  0  0
  1  6  1  0  0  0
  1  7  1  0  0  0
  2  8  1  0  0  0
  9  1  1  0  0  0
 10  2  1  0  0  0
 11  3  1  0  0  0
 12  4  1  0  0  0
 13  4  1  0  0  0
 14  5  1  0  0  0
 15  5  1  0  0  0
 16  6  1  0  0  0
 17  6  1  0  0  0
 18  6  1  0  0  0
 19  7  1  0  0  0
 20  7  1  0  0  0
 21  7  1  0  0  0
 22  8  1  0  0  0
M  END
