CIP:S;
__Jmol-14_05291710533D 1   1.00000     0.00000     0
Jmol version 14.17.2  2017-05-27 15:31 EXTRACT: ({0:23})
 24 24  0  0  0  0              1 V2000
   1.00430   0.65200   0.48460 P   0  0  0  0  0  0
   1.36040   0.30350   1.84990 O   0  0  0  0  0  0
   1.25050   2.40230   0.41640 C   0  0  0  0  0  0
   2.24070  -0.14291  -0.51330 C   0  0  0  0  0  0
   2.23400  -1.65720  -0.43570 C   0  0  0  0  0  0
  -0.63780   0.11810   0.24980 C   0  0  0  0  0  0
  -1.34850  -0.55040   1.25550 C   0  0  0  0  0  0
  -2.66210  -0.97420   1.04690 C   0  0  0  0  0  0
  -3.28500  -0.73450  -0.17520 C   0  0  0  0  0  0
  -2.59460  -0.07140  -1.18690 C   0  0  0  0  0  0
  -1.28040   0.35150  -0.97501 C   0  0  0  0  0  0
   0.65054   2.88783   1.20018 H   0  0  0  0  0  0
   0.93918   2.77828  -0.56936 H   0  0  0  0  0  0
   2.31491   2.62940   0.57596 H   0  0  0  0  0  0
   3.23894   0.24677  -0.26493 H   0  0  0  0  0  0
   2.15438   0.18522  -1.55967 H   0  0  0  0  0  0
   1.25835  -2.03736  -0.77274 H   0  0  0  0  0  0
   2.41104  -1.97194   0.60334 H   0  0  0  0  0  0
   3.02774  -2.06100  -1.08139 H   0  0  0  0  0  0
  -0.86405  -0.74414   2.22389 H   0  0  0  0  0  0
  -3.20506  -1.49742   1.84780 H   0  0  0  0  0  0
  -4.31997  -1.06809  -0.34121 H   0  0  0  0  0  0
  -3.08451   0.11931  -2.15314 H   0  0  0  0  0  0
  -0.74221   0.87451  -1.77925 H   0  0  0  0  0  0
  2  1  2  0  0  0
  3  1  1  0  0  0
  4  1  1  0  0  0
  6  1  1  0  0  0
  5  4  1  0  0  0
  7  6  2  0  0  0
 11  6  1  0  0  0
  8  7  1  0  0  0
  9  8  2  0  0  0
 10  9  1  0  0  0
 11 10  2  0  0  0
 12  3  1  0  0  0
 13  3  1  0  0  0
 14  3  1  0  0  0
 15  4  1  0  0  0
 16  4  1  0  0  0
 17  5  1  0  0  0
 18  5  1  0  0  0
 19  5  1  0  0  0
 20  7  1  0  0  0
 21  8  1  0  0  0
 22  9  1  0  0  0
 23 10  1  0  0  0
 24 11  1  0  0  0
M  END
