CIP:RSSRRRRRRSSSR;
__Jmol-14_05291710533D 1   1.00000     0.00000     0
Jmol version 14.17.2  2017-05-27 15:31 EXTRACT: ({0:46})
 47 46  0  0  0  0              1 V2000
  -1.01090   0.77600  -0.13820 C   0  0  0  0  0  0
   0.50060   0.28781   0.00460 C   0  0  0  0  0  0
  -1.51390   2.27900  -0.21681 C   0  0  0  0  0  0
  -1.55610   0.32740   0.70730 Cl  0  0  0  0  0  0
  -1.41440   0.27170  -1.02610 H   0  0  0  0  0  0
   1.19290   1.02400   1.19160 C   0  0  0  0  0  0
   1.25450   0.52590  -1.34070 C   0  0  0  0  0  0
   0.46130  -1.25210   0.32790 C   0  0  0  0  0  0
   1.48990   2.02530   0.86581 F   0  0  0  0  0  0
   2.40750   0.38081   1.85950 C   0  0  0  0  0  0
   0.45720   1.13940   1.99840 H   0  0  0  0  0  0
   3.24410   0.23541   1.17510 Cl  0  0  0  0  0  0
   2.16100  -0.58100   2.31580 H   0  0  0  0  0  0
   2.76280   1.03190   2.66630 F   0  0  0  0  0  0
   1.21710   1.57800  -1.60800 H   0  0  0  0  0  0
   0.73000  -0.00540  -2.14570 F   0  0  0  0  0  0
   2.72540   0.14160  -1.42090 C   0  0  0  0  0  0
   3.34360   0.86140  -0.87360 F   0  0  0  0  0  0
   3.05750   0.18251  -2.46450 Cl  0  0  0  0  0  0
   2.92410  -0.86380  -1.05090 H   0  0  0  0  0  0
  -0.02600  -1.39680   1.30090 F   0  0  0  0  0  0
   1.48010  -1.64020   0.44140 H   0  0  0  0  0  0
  -0.23971  -2.15900  -0.68050 C   0  0  0  0  0  0
  -1.29980  -1.91330  -0.78710 F   0  0  0  0  0  0
  -0.18490  -3.19800  -0.33670 Cl  0  0  0  0  0  0
   0.23431  -2.11900  -1.66420 H   0  0  0  0  0  0
  -1.28370   3.02500   1.13600 C   0  0  0  0  0  0
  -3.05190   2.19640  -0.44310 C   0  0  0  0  0  0
  -0.90550   3.10370  -1.38100 C   0  0  0  0  0  0
  -1.69390   2.41790   1.95410 H   0  0  0  0  0  0
  -1.86870   4.43140   1.25890 C   0  0  0  0  0  0
  -0.21710   3.13860   1.32740 F   0  0  0  0  0  0
  -2.94090   4.45940   1.05440 H   0  0  0  0  0  0
  -1.36240   5.13290   0.58891 Cl  0  0  0  0  0  0
  -1.72040   4.80110   2.27950 F   0  0  0  0  0  0
  -3.56050   1.84160   0.45910 F   0  0  0  0  0  0
  -3.30790   1.50760  -1.25580 H   0  0  0  0  0  0
  -3.47990   3.17030  -0.70360 C   0  0  0  0  0  0
   0.16530   3.24860  -1.21380 H   0  0  0  0  0  0
  -1.32770   4.11620  -1.37420 F   0  0  0  0  0  0
  -1.15470   2.55820  -2.78430 C   0  0  0  0  0  0
  -0.87360   1.50920  -2.88770 H   0  0  0  0  0  0
  -0.57370   3.13290  -3.51310 F   0  0  0  0  0  0
  -2.20890   2.65360  -3.06220 Cl  0  0  0  0  0  0
  -3.25310   3.87760   0.06660 Cl  0  0  0  0  0  0
  -4.53920   3.08740  -0.83010 F   0  0  0  0  0  0
  -3.05440   3.50620  -1.62610 H   0  0  0  0  0  0
  1  2  1  0  0  0
  1  3  1  0  0  0
  1  4  1  0  0  0
  1  5  1  0  0  0
  2  6  1  0  0  0
  2  7  1  0  0  0
  2  8  1  0  0  0
  3 27  1  0  0  0
  3 28  1  0  0  0
  3 29  1  0  0  0
  6  9  1  0  0  0
  6 10  1  0  0  0
  6 11  1  0  0  0
  7 15  1  0  0  0
  7 16  1  0  0  0
  7 17  1  0  0  0
  8 21  1  0  0  0
  8 22  1  0  0  0
  8 23  1  0  0  0
 10 12  1  0  0  0
 10 13  1  0  0  0
 10 14  1  0  0  0
 17 18  1  0  0  0
 17 19  1  0  0  0
 17 20  1  0  0  0
 23 24  1  0  0  0
 23 25  1  0  0  0
 23 26  1  0  0  0
 27 30  1  0  0  0
 27 31  1  0  0  0
 27 32  1  0  0  0
 28 36  1  0  0  0
 28 37  1  0  0  0
 28 38  1  0  0  0
 29 39  1  0  0  0
 29 40  1  0  0  0
 29 41  1  0  0  0
 31 33  1  0  0  0
 31 34  1  0  0  0
 31 35  1  0  0  0
 38 45  1  0  0  0
 38 46  1  0  0  0
 38 47  1  0  0  0
 41 42  1  0  0  0
 41 43  1  0  0  0
 41 44  1  0  0  0
M  END
