CIP:1S 2S 3R 4R 5R 6R;
__Jmol-14_06031715033D 1   1.00000     0.00000     0
Jmol version 14.17.2  2017-05-27 15:31 EXTRACT: ({0:17})
 18 18  0  0  0  0              1 V2000
  -2.49859   1.71189   0.63913 C   0  0  0  0  0  0
  -1.08802   1.88295  -0.00601 C   0  0  0  0  0  0
  -3.31059   0.54726  -0.01340 C   0  0  0  0  0  0
  -2.50611  -0.79381  -0.03932 C   0  0  0  0  0  0
  -1.03859  -0.64980  -0.57256 C   0  0  0  0  0  0
  -0.25538   0.56141   0.03217 C   0  0  0  0  0  0
  -3.43325   3.21620   0.61729 Cl  0  0  0  0  0  0
  -3.90402   0.94941  -1.63453 Cl  0  0  0  0  0  0
  -1.00669  -0.56879  -2.33948 Cl  0  0  0  0  0  0
  -2.53240  -1.54549   1.56184 Cl  0  0  0  0  0  0
  -0.17695   3.21850   0.71752 Cl  0  0  0  0  0  0
   0.33803   0.17153   1.65633 Cl  0  0  0  0  0  0
  -2.31962   1.44540   1.69124 H   0  0  0  0  0  0
  -1.26687   2.13423  -1.06189 H   0  0  0  0  0  0
  -4.18951   0.40294   0.63211 H   0  0  0  0  0  0
  -3.01309  -1.44747  -0.76438 H   0  0  0  0  0  0
  -0.51858  -1.55785  -0.23338 H   0  0  0  0  0  0
   0.62318   0.74815  -0.60286 H   0  0  0  0  0  0
  1  2  1  0  0  0
  1  3  1  0  0  0
  3  4  1  0  0  0
  4  5  1  0  0  0
  5  6  1  0  0  0
  6  2  1  0  0  0
  1  7  1  0  0  0
  3  8  1  0  0  0
  5  9  1  0  0  0
  4 10  1  0  0  0
  2 11  1  0  0  0
  6 12  1  0  0  0
 13  1  1  0  0  0
 14  2  1  0  0  0
 15  3  1  0  0  0
 16  4  1  0  0  0
 17  5  1  0  0  0
 18  6  1  0  0  0
M  END
