CIP:SSRSR;
__Jmol-14_05291710533D 1   1.00000     0.00000     0
Jmol version 14.17.2  2017-05-27 15:31 EXTRACT: ({0:16})
 17 16  0  0  0  0              1 V2000
  -1.30500   0.78010  -0.09800 C   0  0  0  0  0  0
   0.21951   0.72160   0.00900 C   0  0  0  0  0  0
  -1.87840   2.21200  -0.09560 C   0  0  0  0  0  0
  -1.94810  -0.07440   0.99990 C   0  0  0  0  0  0
  -1.77550   0.21480  -1.45320 C   0  0  0  0  0  0
   0.64061   1.25500   1.18200 Cl  0  0  0  0  0  0
   1.09240   1.55510  -1.30351 F   0  0  0  0  0  0
   0.58610  -0.30810   0.00560 H   0  0  0  0  0  0
  -1.29810   3.35390   1.13710 Cl  0  0  0  0  0  0
  -2.96920   2.18990   0.00191 H   0  0  0  0  0  0
  -1.61590   2.80200  -1.29640 F   0  0  0  0  0  0
  -1.46720   0.82820  -2.30480 H   0  0  0  0  0  0
  -3.13970   0.19900  -1.45730 F   0  0  0  0  0  0
  -1.14670  -1.56370  -1.94300 Br  0  0  0  0  0  0
  -1.76800   0.50250   2.84720 Br  0  0  0  0  0  0
  -1.44020  -1.33410   0.94680 F   0  0  0  0  0  0
  -3.03120  -0.15781   0.86140 H   0  0  0  0  0  0
  1  2  1  0  0  0
  1  3  1  0  0  0
  1  4  1  0  0  0
  1  5  1  0  0  0
  2  6  1  0  0  0
  2  7  1  0  0  0
  2  8  1  0  0  0
  3  9  1  0  0  0
  3 10  1  0  0  0
  3 11  1  0  0  0
  4 15  1  0  0  0
  4 16  1  0  0  0
  4 17  1  0  0  0
  5 12  1  0  0  0
  5 13  1  0  0  0
  5 14  1  0  0  0
M  END
