CIP:EEZZSZZZZZZ;
__Jmol-14_05291710533D 1   1.00000     0.00000     0
Jmol version 14.17.2  2017-05-27 15:31 EXTRACT: ({0:53})
 54 53  0  0  0  0              1 V2000
  -3.02750   7.45090   5.12190 C   0  0  0  0  0  0
  -3.26270   6.40820   4.14580 C   0  0  0  0  0  0
  -4.36090   5.63350   4.15300 C   0  0  0  0  0  0
  -4.59230   4.55430   3.20380 C   0  0  0  0  0  0
  -3.65040   3.43190   3.38560 C   0  0  0  0  0  0
  -3.67160   2.71720   4.67980 C   0  0  0  0  0  0
  -2.78750   3.13750   2.38160 C   0  0  0  0  0  0
  -1.69280   2.17140   2.39600 C   0  0  0  0  0  0
  -0.47020   2.77200   1.85440 C   0  0  0  0  0  0
  -0.05550   2.89350   0.56630 C   0  0  0  0  0  0
  -0.74570   2.28740  -0.59380 C   0  0  0  0  0  0
   1.12880   3.74000   0.28810 C   0  0  0  0  0  0
   0.84420   4.92910  -0.51220 C   0  0  0  0  0  0
   0.10730   5.99360  -0.14561 C   0  0  0  0  0  0
  -0.60610   6.15490   1.10330 C   0  0  0  0  0  0
  -0.85080   0.82980  -0.68350 C   0  0  0  0  0  0
   0.13110  -0.08940  -0.62661 C   0  0  0  0  0  0
   1.53710   0.18071  -0.43561 C   0  0  0  0  0  0
  -3.87530   1.26950   4.63150 C   0  0  0  0  0  0
  -4.98860   0.62430   4.23970 C   0  0  0  0  0  0
  -6.19860   1.25210   3.75300 C   0  0  0  0  0  0
  -2.13620   0.98480   1.75600 O   0  0  0  0  0  0
  -1.45380   1.86430   3.41700 H   0  0  0  0  0  0
  -2.99805   7.01025   6.12935 H   0  0  0  0  0  0
  -3.83866   8.19203   5.06948 H   0  0  0  0  0  0
  -2.06704   7.94290   4.90872 H   0  0  0  0  0  0
  -2.50833   6.24237   3.36258 H   0  0  0  0  0  0
  -5.12723   5.82551   4.91842 H   0  0  0  0  0  0
  -4.56034   4.92866   2.16996 H   0  0  0  0  0  0
  -5.63367   4.20381   3.25575 H   0  0  0  0  0  0
  -4.42316   3.17352   5.34081 H   0  0  0  0  0  0
  -2.75207   2.94174   5.24019 H   0  0  0  0  0  0
  -2.92945   3.69363   1.44321 H   0  0  0  0  0  0
   0.21676   3.18808   2.60604 H   0  0  0  0  0  0
  -0.28874   2.66882  -1.51884 H   0  0  0  0  0  0
  -1.75264   2.72251  -0.67594 H   0  0  0  0  0  0
   1.92258   3.14275  -0.18435 H   0  0  0  0  0  0
   1.62571   4.02225   1.22800 H   0  0  0  0  0  0
   1.27884   4.95695  -1.52230 H   0  0  0  0  0  0
   0.04055   6.82247  -0.86569 H   0  0  0  0  0  0
   0.10526   6.10618   1.94091 H   0  0  0  0  0  0
  -1.35017   5.35141   1.20702 H   0  0  0  0  0  0
  -1.11567   7.12972   1.11130 H   0  0  0  0  0  0
  -1.86815   0.43268  -0.81497 H   0  0  0  0  0  0
  -0.16459  -1.14329  -0.73561 H   0  0  0  0  0  0
   1.68434   0.69603   0.52500 H   0  0  0  0  0  0
   1.90238   0.81883  -1.25374 H   0  0  0  0  0  0
   2.09548  -0.76703  -0.43259 H   0  0  0  0  0  0
  -3.02905   0.64255   4.94897 H   0  0  0  0  0  0
  -4.97866  -0.47432   4.29378 H   0  0  0  0  0  0
  -5.96993   1.83942   2.85146 H   0  0  0  0  0  0
  -6.60516   1.91629   4.52989 H   0  0  0  0  0  0
  -6.94038   0.47776   3.50772 H   0  0  0  0  0  0
  -2.37602   1.18773   0.80663 H   0  0  0  0  0  0
  1  2  1  0  0  0
  2  3  2  0  0  0
  3  4  1  0  0  0
  4  5  1  0  0  0
  5  6  1  0  0  0
  5  7  2  0  0  0
  7  8  1  0  0  0
  8  9  1  0  0  0
  9 10  2  0  0  0
 10 11  1  0  0  0
 10 12  1  0  0  0
 12 13  1  0  0  0
 13 14  2  0  0  0
 14 15  1  0  0  0
 11 16  1  0  0  0
 16 17  2  0  0  0
 17 18  1  0  0  0
  6 19  1  0  0  0
 19 20  2  0  0  0
 20 21  1  0  0  0
  8 22  1  0  0  0
  8 23  1  0  0  0
 24  1  1  0  0  0
 25  1  1  0  0  0
 26  1  1  0  0  0
 27  2  1  0  0  0
 28  3  1  0  0  0
 29  4  1  0  0  0
 30  4  1  0  0  0
 31  6  1  0  0  0
 32  6  1  0  0  0
 33  7  1  0  0  0
 34  9  1  0  0  0
 35 11  1  0  0  0
 36 11  1  0  0  0
 37 12  1  0  0  0
 38 12  1  0  0  0
 39 13  1  0  0  0
 40 14  1  0  0  0
 41 15  1  0  0  0
 42 15  1  0  0  0
 43 15  1  0  0  0
 44 16  1  0  0  0
 45 17  1  0  0  0
 46 18  1  0  0  0
 47 18  1  0  0  0
 48 18  1  0  0  0
 49 19  1  0  0  0
 50 20  1  0  0  0
 51 21  1  0  0  0
 52 21  1  0  0  0
 53 21  1  0  0  0
 54 22  1  0  0  0
M  END
