CIP:SRR;
__Jmol-14_05291710533D 1   1.00000     0.00000     0
Jmol version 14.17.2  2017-05-27 15:31 EXTRACT: ({0:41})
 42 43  0  0  0  0              1 V2000
   3.28020  -1.37800  -1.07670 C   0  0  0  0  0  0
   2.21170  -1.30550   0.04570 C   0  0  0  0  0  0
   1.40350  -0.07850  -0.03320 C   0  0  0  0  0  0
   2.15850   1.19920  -0.07310 C   0  0  0  0  0  0
   3.17280   1.21990  -1.28500 C   0  0  0  0  0  0
   4.08970  -0.05870  -1.19900 C   0  0  0  0  0  0
   1.33220   2.52900   0.01040 C   0  0  0  0  0  0
   2.18640   3.84370   0.06690 C   0  0  0  0  0  0
   3.29100   3.82590  -1.04220 C   0  0  0  0  0  0
   4.08020   2.49400  -1.14480 C   0  0  0  0  0  0
   2.44960   1.23060  -2.68230 C   0  0  0  0  0  0
   1.29740   5.15840   0.02560 C   0  0  0  0  0  0
   0.05980  -0.16950  -0.06430 C   0  0  0  0  0  0
   0.23361   5.20320   1.16950 C   0  0  0  0  0  0
   2.14700   6.46750   0.09000 C   0  0  0  0  0  0
   0.57890   5.19170  -1.21180 O   0  0  0  0  0  0
   2.75510   1.20040   0.84770 H   0  0  0  0  0  0
   2.82167  -1.64868  -2.03924 H   0  0  0  0  0  0
   3.94982  -2.23780  -0.92722 H   0  0  0  0  0  0
   2.67672  -1.40617   1.03748 H   0  0  0  0  0  0
   1.57050  -2.19924   0.03561 H   0  0  0  0  0  0
   4.80941   0.03389  -0.37229 H   0  0  0  0  0  0
   4.77721  -0.10249  -2.05656 H   0  0  0  0  0  0
   0.64127   2.49088   0.86548 H   0  0  0  0  0  0
   0.61497   2.58049  -0.82202 H   0  0  0  0  0  0
   2.69189   3.87065   1.04351 H   0  0  0  0  0  0
   3.98364   4.66907  -0.90322 H   0  0  0  0  0  0
   2.85495   4.08616  -2.01797 H   0  0  0  0  0  0
   4.76230   2.38607  -0.28859 H   0  0  0  0  0  0
   4.80486   2.54089  -1.97104 H   0  0  0  0  0  0
   3.20206   1.23084  -3.48468 H   0  0  0  0  0  0
   1.82508   2.13233  -2.76509 H   0  0  0  0  0  0
   1.81599   0.33611  -2.77415 H   0  0  0  0  0  0
  -0.55203   0.74275  -0.12317 H   0  0  0  0  0  0
  -0.42557  -1.15606  -0.03083 H   0  0  0  0  0  0
  -0.43445   4.33356   1.08328 H   0  0  0  0  0  0
  -0.35596   6.12810   1.08599 H   0  0  0  0  0  0
   0.74231   5.17947   2.14451 H   0  0  0  0  0  0
   1.47902   7.34054   0.04988 H   0  0  0  0  0  0
   2.84048   6.49696  -0.76335 H   0  0  0  0  0  0
   2.71990   6.48705   1.02883 H   0  0  0  0  0  0
   0.01882   4.36739  -1.29438 H   0  0  0  0  0  0
  1  2  1  0  0  0
  2  3  1  0  0  0
  3  4  1  0  0  0
  4  5  1  0  0  0
  5  6  1  0  0  0
  6  1  1  0  0  0
  4  7  1  0  0  0
  7  8  1  0  0  0
  8  9  1  0  0  0
  9 10  1  0  0  0
 10  5  1  0  0  0
  5 11  1  0  0  0
  8 12  1  0  0  0
  3 13  2  0  0  0
 12 14  1  0  0  0
 12 15  1  0  0  0
 12 16  1  0  0  0
  4 17  1  0  0  0
 18  1  1  0  0  0
 19  1  1  0  0  0
 20  2  1  0  0  0
 21  2  1  0  0  0
 22  6  1  0  0  0
 23  6  1  0  0  0
 24  7  1  0  0  0
 25  7  1  0  0  0
 26  8  1  0  0  0
 27  9  1  0  0  0
 28  9  1  0  0  0
 29 10  1  0  0  0
 30 10  1  0  0  0
 31 11  1  0  0  0
 32 11  1  0  0  0
 33 11  1  0  0  0
 34 13  1  0  0  0
 35 13  1  0  0  0
 36 14  1  0  0  0
 37 14  1  0  0  0
 38 14  1  0  0  0
 39 15  1  0  0  0
 40 15  1  0  0  0
 41 15  1  0  0  0
 42 16  1  0  0  0
M  END
