CIP:1S 2R;
__Jmol-14_06031715043D 1   1.00000     0.00000     0
Jmol version 14.17.2  2017-05-27 15:31 EXTRACT: ({0:20})
 21 20  0  0  0  0              1 V2000
   2.44626  -2.25182   2.43829 C   0  0  0  0  0  0
   1.34781  -2.16640   1.33596 C   0  0  0  0  0  0
   1.66304  -2.97660   0.20283 O   0  0  0  0  0  0
   3.62827  -1.26286   2.28781 C   0  0  0  0  0  0
   4.61877  -1.58386   1.17676 C   0  0  0  0  0  0
   1.07361  -0.75545   0.81144 C   0  0  0  0  0  0
   2.95682  -3.68943   2.61860 C   0  0  0  0  0  0
   1.95317  -1.96670   3.37842 H   0  0  0  0  0  0
   0.41190  -2.55620   1.74735 H   0  0  0  0  0  0
   1.57304  -3.91053   0.47253 H   0  0  0  0  0  0
   4.18303  -1.23986   3.22886 H   0  0  0  0  0  0
   3.25833  -0.23925   2.15477 H   0  0  0  0  0  0
   4.12431  -1.69206   0.21192 H   0  0  0  0  0  0
   5.17274  -2.50569   1.38891 H   0  0  0  0  0  0
   5.35535  -0.77796   1.08760 H   0  0  0  0  0  0
   0.20241  -0.75756   0.15459 H   0  0  0  0  0  0
   1.90410  -0.38238   0.20661 H   0  0  0  0  0  0
   0.88220  -0.05003   1.62928 H   0  0  0  0  0  0
   3.68326  -3.75342   3.43043 H   0  0  0  0  0  0
   3.44230  -4.07236   1.71673 H   0  0  0  0  0  0
   2.13128  -4.36935   2.85724 H   0  0  0  0  0  0
  2  1  1  0  0  0
  2  3  1  0  0  0
  1  4  1  0  0  0
  4  5  1  0  0  0
  2  6  1  0  0  0
  1  7  1  0  0  0
  1  8  1  0  0  0
  2  9  1  0  0  0
  3 10  1  0  0  0
  4 11  1  0  0  0
  4 12  1  0  0  0
  5 13  1  0  0  0
  5 14  1  0  0  0
  5 15  1  0  0  0
  6 16  1  0  0  0
  6 17  1  0  0  0
  6 18  1  0  0  0
  7 19  1  0  0  0
  7 20  1  0  0  0
  7 21  1  0  0  0
M  END
