CIP:2R 3R 5R 6R;
__Jmol-14_06031715033D 1   1.00000     0.00000     0
Jmol version 14.17.2  2017-05-27 15:31 EXTRACT: ({0:22})
 23 23  0  0  0  0              1 V2000
  -3.75257  -3.57059  16.01854 C   0  0  0  0  0  0
  -5.27632  -3.67194  16.14848 C   0  0  0  0  0  0
  -5.67951  -5.11651  16.46198 C   0  0  0  0  0  0
  -5.01075  -5.57637  17.76543 C   0  0  0  0  0  0
  -3.48378  -5.43965  17.67118 C   0  0  0  0  0  0
  -3.10664  -3.99099  17.34371 C   0  0  0  0  0  0
  -5.87941  -3.27233  14.92771 O   0  0  0  0  0  0
  -5.26350  -5.95933  15.39861 O   0  0  0  0  0  0
  -3.57021  -3.14007  18.38111 O   0  0  0  0  0  0
  -2.90407  -5.80564  18.91426 O   0  0  0  0  0  0
  -5.34838  -6.93217  18.01539 O   0  0  0  0  0  0
  -5.61802  -3.00728  16.97478 H   0  0  0  0  0  0
  -6.78610  -5.17235  16.57834 H   0  0  0  0  0  0
  -3.10393  -6.10817  16.86496 H   0  0  0  0  0  0
  -1.99867  -3.91008  17.25511 H   0  0  0  0  0  0
  -3.40333  -4.24206  15.20512 H   0  0  0  0  0  0
  -3.46846  -2.52288  15.78220 H   0  0  0  0  0  0
  -5.40397  -5.00318  18.63203 H   0  0  0  0  0  0
  -6.51464  -2.48479  14.91111 H   0  0  0  0  0  0
  -5.94783  -6.49443  14.87957 H   0  0  0  0  0  0
  -2.91246  -2.57972  18.90782 H   0  0  0  0  0  0
  -2.25043  -6.57676  18.96028 H   0  0  0  0  0  0
  -5.84973  -7.18154  18.85836 H   0  0  0  0  0  0
  1  2  1  0  0  0
  2  3  1  0  0  0
  3  4  1  0  0  0
  4  5  1  0  0  0
  5  6  1  0  0  0
  6  1  1  0  0  0
  2  7  1  0  0  0
  3  8  1  0  0  0
  6  9  1  0  0  0
  5 10  1  0  0  0
  4 11  1  0  0  0
 12  2  1  0  0  0
 13  3  1  0  0  0
 14  5  1  0  0  0
 15  6  1  0  0  0
 16  1  1  0  0  0
 17  1  1  0  0  0
 18  4  1  0  0  0
 19  7  1  0  0  0
 20  8  1  0  0  0
 21  9  1  0  0  0
 22 10  1  0  0  0
 23 11  1  0  0  0
M  END
