CIP:RRRSR;
__Jmol-14_05291710533D 1   1.00000     0.00000     0
Jmol version 14.17.2  2017-05-27 15:31 EXTRACT: ({0:39})
 40 39  0  0  0  0              1 V2000
   2.47830   0.03410  -3.31380 C   0  0  0  0  0  0
   2.20100   0.51330  -1.90570 N   0  0  0  0  0  0
   0.82950   1.03130  -1.49710 C   0  0  0  0  0  0
   0.25061   0.29310  -0.30611 N   0  0  0  0  0  0
   0.38050  -1.20840  -0.25000 C   0  0  0  0  0  0
   0.58421  -1.76180   1.18360 C   0  0  0  0  0  0
   3.39430   1.10750  -1.19720 C   0  0  0  0  0  0
   3.34440   1.07540   0.34921 C   0  0  0  0  0  0
  -0.95480   0.89430   0.37860 C   0  0  0  0  0  0
  -2.09530   0.92270  -0.47441 O   0  0  0  0  0  0
   3.59650   2.45560  -1.61970 O   0  0  0  0  0  0
  -0.71140   2.31260   0.95000 C   0  0  0  0  0  0
  -0.14580   1.29410  -2.59770 C   0  0  0  0  0  0
  -0.19391   2.41680  -3.15460 O   0  0  0  0  0  0
  -1.03020   0.38191  -3.05790 O   0  0  0  0  0  0
  -0.73140  -1.87500  -0.84160 O   0  0  0  0  0  0
   2.04850   0.95010  -4.31850 O   0  0  0  0  0  0
   1.89691  -1.36820  -3.60300 C   0  0  0  0  0  0
   3.57521  -0.03175  -3.36336 H   0  0  0  0  0  0
   1.03930   2.05449  -1.15204 H   0  0  0  0  0  0
   1.28863  -1.41944  -0.83375 H   0  0  0  0  0  0
   0.77889  -2.84334   1.13497 H   0  0  0  0  0  0
  -0.32212  -1.57887   1.77952 H   0  0  0  0  0  0
   1.44039  -1.25594   1.65374 H   0  0  0  0  0  0
   4.23201   0.45523  -1.48492 H   0  0  0  0  0  0
   2.51549   1.70632   0.70253 H   0  0  0  0  0  0
   4.29346   1.45600   0.75471 H   0  0  0  0  0  0
   3.18878   0.04107   0.68969 H   0  0  0  0  0  0
  -1.14701   0.22398   1.22932 H   0  0  0  0  0  0
  -2.25653   0.00842  -0.84601 H   0  0  0  0  0  0
   4.38860   2.83866  -1.14447 H   0  0  0  0  0  0
  -0.42847   2.99331   0.13355 H   0  0  0  0  0  0
   0.09885   2.27455   1.69300 H   0  0  0  0  0  0
  -1.63163   2.67770   1.42945 H   0  0  0  0  0  0
  -0.91620  -0.47559  -2.55619 H   0  0  0  0  0  0
  -0.87425  -1.52707  -1.76817 H   0  0  0  0  0  0
   2.42680   1.85590  -4.12764 H   0  0  0  0  0  0
   2.24769  -1.71500  -4.58620 H   0  0  0  0  0  0
   0.79810  -1.31676  -3.60300 H   0  0  0  0  0  0
   2.23101  -2.07116  -2.82568 H   0  0  0  0  0  0
  1  2  1  0  0  0
  2  3  1  0  0  0
  3  4  1  0  0  0
  4  5  1  0  0  0
  5  6  1  0  0  0
  7  8  1  0  0  0
  2  7  1  0  0  0
  9 10  1  0  0  0
  4  9  1  0  0  0
  7 11  1  0  0  0
  9 12  1  0  0  0
  3 13  1  0  0  0
 13 14  2  0  0  0
 13 15  1  0  0  0
  5 16  1  0  0  0
  1 17  1  0  0  0
  1 18  1  0  0  0
 19  1  1  0  0  0
 20  3  1  0  0  0
 21  5  1  0  0  0
 22  6  1  0  0  0
 23  6  1  0  0  0
 24  6  1  0  0  0
 25  7  1  0  0  0
 26  8  1  0  0  0
 27  8  1  0  0  0
 28  8  1  0  0  0
 29  9  1  0  0  0
 30 10  1  0  0  0
 31 11  1  0  0  0
 32 12  1  0  0  0
 33 12  1  0  0  0
 34 12  1  0  0  0
 35 15  1  0  0  0
 36 16  1  0  0  0
 37 17  1  0  0  0
 38 18  1  0  0  0
 39 18  1  0  0  0
 40 18  1  0  0  0
M  END
