CIP:1R;
__Jmol-14_06031715043D 1   1.00000     0.00000     0
Jmol version 14.17.2  2017-05-27 15:31 EXTRACT: ({0:4})
  5  4  0  0  0  0              1 V2000
   0.62470  -1.98892   0.71254 C   0  0  0  0  0  0
  -0.18971  -2.82048   1.41546 F   0  0  0  0  0  0
  -0.34863  -0.94492  -0.33966 Cl  0  0  0  0  0  0
   1.86833  -3.03692  -0.36089 Br  0  0  0  0  0  0
   1.20776  -1.38004   1.40870 H   0  0  0  0  0  0
  1  2  1  0  0  0
  1  3  1  0  0  0
  1  4  1  0  0  0
  1  5  1  0  0  0
M  END
