CIP:RRSSRR;
__Jmol-14_05291710533D 1   1.00000     0.00000     0
Jmol version 14.17.2  2017-05-27 15:31 EXTRACT: ({0:17})
 18 18  0  0  0  0              1 V2000
  10.67550  -8.40060  -0.38981 C   0  0  0  0  0  0
  10.20680  -6.97590  -0.75270 C   0  0  0  0  0  0
  11.39050  -6.01960  -1.01060 C   0  0  0  0  0  0
  12.56820  -6.78260  -1.63020 C   0  0  0  0  0  0
  13.12180  -7.81910  -0.62790 C   0  0  0  0  0  0
  12.03120  -8.35180   0.32590 C   0  0  0  0  0  0
   9.46030  -9.18320   0.63190 Cl  0  0  0  0  0  0
   9.16970  -7.06330  -2.18410 Cl  0  0  0  0  0  0
  10.87540  -4.69960  -2.07120 Cl  0  0  0  0  0  0
  13.85310  -5.65860  -2.09870 Cl  0  0  0  0  0  0
  14.41700  -7.09510   0.33611 Cl  0  0  0  0  0  0
  12.48140  -9.96160   0.90670 Cl  0  0  0  0  0  0
  10.90750  -8.88860  -1.36060 H   0  0  0  0  0  0
   9.76960  -6.58130   0.18940 H   0  0  0  0  0  0
  11.76030  -5.73630  -0.00191 H   0  0  0  0  0  0
  12.10290  -7.38150  -2.44210 H   0  0  0  0  0  0
  13.36850  -8.68740  -1.27560 H   0  0  0  0  0  0
  11.90070  -7.55870   1.09290 H   0  0  0  0  0  0
  1  2  1  0  0  0
  2  3  1  0  0  0
  3  4  1  0  0  0
  4  5  1  0  0  0
  5  6  1  0  0  0
  1  6  1  0  0  0
  1  7  1  0  0  0
  6 12  1  0  0  0
  5 11  1  0  0  0
  4 10  1  0  0  0
  3  9  1  0  0  0
  2  8  1  0  0  0
 13  1  1  0  0  0
 14  2  1  0  0  0
 15  3  1  0  0  0
 16  4  1  0  0  0
 17  5  1  0  0  0
 18  6  1  0  0  0
M  END
