CIP:rr;
__Jmol-14_05291710533D 1   1.00000     0.00000     0
Jmol version 14.17.2  2017-05-27 15:31 EXTRACT: ({0:13})
 14 14  0  0  0  0              1 V2000
   8.78080 -10.25980  -1.25760 C   0  0  0  0  0  0
   9.08380 -10.31970   0.23900 C   0  0  0  0  0  0
  10.47420 -10.71540  -0.26740 C   0  0  0  0  0  0
  10.17870  -9.64510  -1.32210 C   0  0  0  0  0  0
   7.79170  -9.27660  -1.52620 O   0  0  0  0  0  0
  10.39840 -11.99700  -0.87400 O   0  0  0  0  0  0
   8.39600 -11.09090  -1.88640 H   0  0  0  0  0  0
   9.02470  -9.35240   0.78220 H   0  0  0  0  0  0
   8.53770 -11.10020   0.81080 H   0  0  0  0  0  0
  11.39990 -10.81230   0.33930 H   0  0  0  0  0  0
  10.71200  -9.76020  -2.28990 H   0  0  0  0  0  0
  10.25890  -8.59190  -0.97740 H   0  0  0  0  0  0
   7.02630  -9.48720  -2.15380 H   0  0  0  0  0  0
  11.10700 -12.69240  -0.67770 H   0  0  0  0  0  0
  1  2  1  0  0  0
  2  3  1  0  0  0
  3  4  1  0  0  0
  4  1  1  0  0  0
  1  5  1  0  0  0
  3  6  1  0  0  0
  7  1  1  0  0  0
  8  2  1  0  0  0
  9  2  1  0  0  0
 10  3  1  0  0  0
 11  4  1  0  0  0
 12  4  1  0  0  0
 13  5  1  0  0  0
 14  6  1  0  0  0
M  END
