CIP:2R 3R 8S;
__Jmol-14_06031715043D 1   1.00000     0.00000     0
Jmol version 14.17.2  2017-05-27 15:31 EXTRACT: ({0:21})
 22 22  0  0  0  0              1 V2000
   3.16125   1.26607   1.85310 C   0  0  0  0  0  0
   1.84619   1.91972   2.29734 C   0  0  0  0  0  0
   1.80979   3.44778   2.55902 C   0  0  0  0  0  0
   3.16951   4.13862   2.76597 C   0  0  0  0  0  0
   4.35384   3.60352   1.97244 C   0  0  0  0  0  0
   4.44323   2.09069   1.79972 C   0  0  0  0  0  0
   1.44759   1.27050   3.50964 O   0  0  0  0  0  0
   0.91958   4.22156   1.55471 C   0  0  0  0  0  0
   0.15455   3.37434   0.81925 F   0  0  0  0  0  0
  -0.19930   5.31511   2.42533 Cl  0  0  0  0  0  0
   3.00144   0.84989   0.85181 H   0  0  0  0  0  0
   3.36316   0.38445   2.47547 H   0  0  0  0  0  0
   1.08629   1.62275   1.57181 H   0  0  0  0  0  0
   1.32249   3.56757   3.53122 H   0  0  0  0  0  0
   3.42579   4.09275   3.82950 H   0  0  0  0  0  0
   3.08252   5.21275   2.55756 H   0  0  0  0  0  0
   5.27037   3.93433   2.47180 H   0  0  0  0  0  0
   4.40008   4.08551   0.99245 H   0  0  0  0  0  0
   5.13547   1.69763   2.55018 H   0  0  0  0  0  0
   4.94402   1.88966   0.84695 H   0  0  0  0  0  0
   0.55495   1.58306   3.74002 H   0  0  0  0  0  0
   1.50031   4.83004   0.85396 H   0  0  0  0  0  0
  1  2  1  0  0  0
  2  3  1  0  0  0
  3  4  1  0  0  0
  4  5  1  0  0  0
  5  6  1  0  0  0
  6  1  1  0  0  0
  2  7  1  0  0  0
  3  8  1  0  0  0
  9  8  1  0  0  0
  8 10  1  0  0  0
  1 11  1  0  0  0
  1 12  1  0  0  0
  2 13  1  0  0  0
  3 14  1  0  0  0
  4 15  1  0  0  0
  4 16  1  0  0  0
  5 17  1  0  0  0
  5 18  1  0  0  0
  6 19  1  0  0  0
  6 20  1  0  0  0
  7 21  1  0  0  0
  8 22  1  0  0  0
M  END
