CIP:ZZ;
__Jmol-14_05291710533D 1   1.00000     0.00000     0
Jmol version 14.17.2  2017-05-27 15:31 EXTRACT: ({0:11})
 12 11  0  0  0  0              1 V2000
   8.85110 -12.38690   0.00000 C   0  0  0  0  0  0
  10.71100  -9.16550   0.00000 C   0  0  0  0  0  0
  14.43080  -9.16550   0.00000 C   0  0  0  0  0  0
  16.29070 -12.38690   0.00000 C   0  0  0  0  0  0
   7.69930 -11.72190   0.00000 H   0  0  0  0  0  0
   8.18610 -13.53870   0.00000 H   0  0  0  0  0  0
  10.00290 -13.05190   0.00000 H   0  0  0  0  0  0
  10.04600  -8.01370   0.00000 H   0  0  0  0  0  0
  15.09580  -8.01370   0.00000 H   0  0  0  0  0  0
  15.13890 -13.05190   0.00000 H   0  0  0  0  0  0
  16.95570 -13.53870   0.00000 H   0  0  0  0  0  0
  17.44250 -11.72190   0.00000 H   0  0  0  0  0  0
  1  2  1  0  0  0
  2  3  2  0  0  0
  3  4  1  0  0  0
  5  1  1  0  0  0
  6  1  1  0  0  0
  7  1  1  0  0  0
  8  2  1  0  0  0
  9  3  1  0  0  0
 10  4  1  0  0  0
 11  4  1  0  0  0
 12  4  1  0  0  0
M  END
