CIP:2R 3S 5R 7S 8S 10R 11R 13R 14R 16S 17R 19S 20S;
__Jmol-14_06031715033D 1   1.00000     0.00000     0
Jmol version 14.17.2  2017-05-27 15:31 EXTRACT: ({0:83})
 84 83  0  0  0  0              1 V2000
  -5.15021  -5.23957   1.83324 C   0  0  0  0  0  0
  -4.25789  -4.84904   3.02621 C   0  0  0  0  0  0
  -2.75106  -4.66901   2.62540 C   0  0  0  0  0  0
  -1.96767  -3.36693   3.20097 C   0  0  0  0  0  0
  -0.42206  -3.34238   2.68147 C   0  0  0  0  0  0
   0.79684  -2.31388   3.01512 C   0  0  0  0  0  0
   2.07410  -2.59066   2.04712 C   0  0  0  0  0  0
   3.29049  -1.58976   2.06027 C   0  0  0  0  0  0
   3.75139  -1.14515   0.65920 C   0  0  0  0  0  0
  -1.81163  -3.41656   4.80521 C   0  0  0  0  0  0
  -2.48543  -2.35703   5.73728 C   0  0  0  0  0  0
  -3.98580  -2.34383   5.80111 Cl  0  0  0  0  0  0
   1.29964  -2.52350   4.54704 C   0  0  0  0  0  0
   1.63136  -3.96276   5.11211 C   0  0  0  0  0  0
   3.02450  -4.58227   4.88179 C   0  0  0  0  0  0
  -2.73912  -2.07804   2.57605 C   0  0  0  0  0  0
  -4.02345  -1.48722   3.26773 C   0  0  0  0  0  0
  -3.92480   0.02993   3.49398 C   0  0  0  0  0  0
   0.12682  -0.87140   2.67173 C   0  0  0  0  0  0
   0.44473  -0.06572   1.33864 C   0  0  0  0  0  0
   0.30136  -1.02397  -0.13392 Cl  0  0  0  0  0  0
  -1.97161  -0.90193   5.81938 C   0  0  0  0  0  0
  -0.36473  -3.88948   5.18560 C   0  0  0  0  0  0
   0.78533  -1.57888   4.98447 C   0  0  0  0  0  0
   1.39851  -4.07835   6.86011 Cl  0  0  0  0  0  0
  -5.62582  -1.80663   2.59563 Cl  0  0  0  0  0  0
  -1.62721  -0.93020   1.98397 C   0  0  0  0  0  0
  -1.46782  -0.94314   3.30515 C   0  0  0  0  0  0
  -0.41421   1.16273   0.95146 C   0  0  0  0  0  0
  -4.63480  -5.92818   4.37186 Cl  0  0  0  0  0  0
   4.74259  -2.10121   2.92752 Cl  0  0  0  0  0  0
  -0.51800  -3.02257   1.56424 O   0  0  0  0  0  0
  -2.58624  -5.28250   0.73889 C   0  0  0  0  0  0
   2.16461  -4.26024   2.38801 C   0  0  0  0  0  0
  -6.20790  -5.13555   2.11689 H   0  0  0  0  0  0
  -4.94755  -6.28293   1.54979 H   0  0  0  0  0  0
  -4.93258  -4.57921   0.98085 H   0  0  0  0  0  0
  -4.48384  -3.83518   3.38821 H   0  0  0  0  0  0
  -2.07531  -5.31623   3.20374 H   0  0  0  0  0  0
  -0.12100  -4.29309   3.14569 H   0  0  0  0  0  0
   2.02082  -2.35954   0.97299 H   0  0  0  0  0  0
   2.83473  -0.75852   2.61822 H   0  0  0  0  0  0
   4.23760  -1.98918   0.14810 H   0  0  0  0  0  0
   4.46540  -0.31385   0.75467 H   0  0  0  0  0  0
   2.88032  -0.81492   0.07423 H   0  0  0  0  0  0
  -2.54975  -4.17788   5.09774 H   0  0  0  0  0  0
  -2.06508  -2.84365   6.62975 H   0  0  0  0  0  0
   2.32505  -2.58467   4.94050 H   0  0  0  0  0  0
   0.91507  -4.52738   4.49718 H   0  0  0  0  0  0
   3.02477  -5.62483   5.23258 H   0  0  0  0  0  0
   3.77825  -4.00748   5.43989 H   0  0  0  0  0  0
   3.26444  -4.55648   3.80859 H   0  0  0  0  0  0
  -3.28678  -2.53073   1.73632 H   0  0  0  0  0  0
  -3.98663  -2.08014   4.19352 H   0  0  0  0  0  0
  -4.71059   0.34804   4.19493 H   0  0  0  0  0  0
  -4.05523   0.55295   2.53509 H   0  0  0  0  0  0
  -2.93798   0.27471   3.91382 H   0  0  0  0  0  0
   0.72019  -0.08198   3.15621 H   0  0  0  0  0  0
   1.45665   0.24523   1.63750 H   0  0  0  0  0  0
  -2.30071  -0.44971   6.76658 H   0  0  0  0  0  0
  -2.37575  -0.32221   4.97642 H   0  0  0  0  0  0
  -0.87257  -0.89798   5.77360 H   0  0  0  0  0  0
   0.37200  -3.18586   4.77069 H   0  0  0  0  0  0
  -0.18642  -4.89312   4.77219 H   0  0  0  0  0  0
  -0.26526  -3.92105   6.28065 H   0  0  0  0  0  0
  -0.30144  -1.64780   4.82893 H   0  0  0  0  0  0
   1.17215  -0.68267   4.47734 H   0  0  0  0  0  0
   0.99796  -1.51114   6.06160 H   0  0  0  0  0  0
  -1.01098  -1.38880   1.19660 H   0  0  0  0  0  0
  -0.97921  -0.58990   2.80511 H   0  0  0  0  0  0
  -2.17369  -0.07094   1.56799 H   0  0  0  0  0  0
  -1.42384  -1.11732   4.39038 H   0  0  0  0  0  0
  -2.01696  -1.76577   2.82377 H   0  0  0  0  0  0
  -1.98421   0.00771   3.10709 H   0  0  0  0  0  0
  -1.44135   0.83702   0.73037 H   0  0  0  0  0  0
   0.01666   1.64584   0.06210 H   0  0  0  0  0  0
  -0.42830   1.87830   1.78678 H   0  0  0  0  0  0
  -1.24667  -3.55036   1.12779 H   0  0  0  0  0  0
  -1.53516  -5.52401   0.52231 H   0  0  0  0  0  0
  -2.92583  -4.48414   0.06264 H   0  0  0  0  0  0
  -3.20664  -6.17841   0.58909 H   0  0  0  0  0  0
   2.54587  -4.40581   3.40950 H   0  0  0  0  0  0
   2.84350  -4.74468   1.67079 H   0  0  0  0  0  0
   1.16281  -4.70661   2.30352 H   0  0  0  0  0  0
  1  2  1  0  0  0
  2  3  1  0  0  0
  3  4  1  0  0  0
  4  5  1  0  0  0
  5  6  1  0  0  0
  6  7  1  0  0  0
  7  8  1  0  0  0
  8  9  1  0  0  0
 10 11  1  0  0  0
 11 12  1  0  0  0
  4 10  1  0  0  0
 13 14  1  0  0  0
 14 15  1  0  0  0
  6 13  1  0  0  0
 16 17  1  0  0  0
 17 18  1  0  0  0
  4 16  1  0  0  0
 19 20  1  0  0  0
 20 21  1  0  0  0
  6 19  1  0  0  0
 11 22  1  0  0  0
 10 23  1  0  0  0
 13 24  1  0  0  0
 14 25  1  0  0  0
 17 26  1  0  0  0
 16 27  1  0  0  0
 19 28  1  0  0  0
 20 29  1  0  0  0
  2 30  1  0  0  0
  8 31  1  0  0  0
  5 32  1  0  0  0
  3 33  1  0  0  0
  7 34  1  0  0  0
 35  1  1  0  0  0
 36  1  1  0  0  0
 37  1  1  0  0  0
 38  2  1  0  0  0
 39  3  1  0  0  0
 40  5  1  0  0  0
 41  7  1  0  0  0
 42  8  1  0  0  0
 43  9  1  0  0  0
 44  9  1  0  0  0
 45  9  1  0  0  0
 46 10  1  0  0  0
 47 11  1  0  0  0
 48 13  1  0  0  0
 49 14  1  0  0  0
 50 15  1  0  0  0
 51 15  1  0  0  0
 52 15  1  0  0  0
 53 16  1  0  0  0
 54 17  1  0  0  0
 55 18  1  0  0  0
 56 18  1  0  0  0
 57 18  1  0  0  0
 58 19  1  0  0  0
 59 20  1  0  0  0
 60 22  1  0  0  0
 61 22  1  0  0  0
 62 22  1  0  0  0
 63 23  1  0  0  0
 64 23  1  0  0  0
 65 23  1  0  0  0
 66 24  1  0  0  0
 67 24  1  0  0  0
 68 24  1  0  0  0
 69 27  1  0  0  0
 70 27  1  0  0  0
 71 27  1  0  0  0
 72 28  1  0  0  0
 73 28  1  0  0  0
 74 28  1  0  0  0
 75 29  1  0  0  0
 76 29  1  0  0  0
 77 29  1  0  0  0
 78 32  1  0  0  0
 79 33  1  0  0  0
 80 33  1  0  0  0
 81 33  1  0  0  0
 82 34  1  0  0  0
 83 34  1  0  0  0
 84 34  1  0  0  0
M  END
