CIP:2R 3r 4S;
__Jmol-14_06031715033D 1   1.00000     0.00000     0
Jmol version 14.17.2  2017-05-27 15:31 EXTRACT: ({0:16})
 17 16  0  0  0  0              1 V2000
  -7.81495  10.72078  -2.06985 C   0  0  0  0  0  0
  -9.06719   9.84559  -2.01882 C   0  0  0  0  0  0
 -10.30884  10.73062  -1.91390 C   0  0  0  0  0  0
 -11.56046   9.85471  -1.85650 C   0  0  0  0  0  0
 -12.80693  10.73963  -1.82523 C   0  0  0  0  0  0
  -8.98323   8.78207  -0.61115 Cl  0  0  0  0  0  0
 -10.20850  11.71516  -0.44585 Cl  0  0  0  0  0  0
 -11.51247   8.85690  -0.39970 Cl  0  0  0  0  0  0
  -9.12793   9.23515  -2.94985 H   0  0  0  0  0  0
 -11.59485   9.20249  -2.75994 H   0  0  0  0  0  0
  -7.39120  10.70088  -3.09674 H   0  0  0  0  0  0
  -8.08210  11.76490  -1.79970 H   0  0  0  0  0  0
  -7.06223  10.33168  -1.35114 H   0  0  0  0  0  0
 -10.37056  11.26251  -2.88730 H   0  0  0  0  0  0
 -13.05419  11.06693  -2.85777 H   0  0  0  0  0  0
 -13.65921  10.16348  -1.40538 H   0  0  0  0  0  0
 -12.61214  11.63086  -1.19095 H   0  0  0  0  0  0
  1  2  1  0  0  0
  2  3  1  0  0  0
  3  4  1  0  0  0
  4  5  1  0  0  0
  2  6  1  0  0  0
  3  7  1  0  0  0
  4  8  1  0  0  0
  9  2  1  0  0  0
 10  4  1  0  0  0
 11  1  1  0  0  0
 12  1  1  0  0  0
 13  1  1  0  0  0
 14  3  1  0  0  0
 15  5  1  0  0  0
 16  5  1  0  0  0
 17  5  1  0  0  0
M  END
