CIP:RSSRR;
__Jmol-14_05291710533D 1   1.00000     0.00000     0
Jmol version 14.17.2  2017-05-27 15:31 EXTRACT: ({0:22})
 23 22  0  0  0  0              1 V2000
   9.61890 -10.52830  -1.42180 C   0  0  0  0  0  0
  10.87140  -9.73580  -1.69760 C   0  0  0  0  0  0
  12.08390 -10.66890  -1.71040 C   0  0  0  0  0  0
  13.30700  -9.91740  -1.17950 C   0  0  0  0  0  0
  14.61570 -10.56700  -1.63710 C   0  0  0  0  0  0
  15.79780  -9.77350  -1.08010 C   0  0  0  0  0  0
  17.06640 -10.57640  -1.22410 C   0  0  0  0  0  0
  11.08450  -8.52080  -0.43550 Cl  0  0  0  0  0  0
  11.75830 -12.07220  -0.68520 Cl  0  0  0  0  0  0
  13.25920  -8.23320  -1.73020 Cl  0  0  0  0  0  0
  14.69060 -12.22960  -1.04470 Cl  0  0  0  0  0  0
  15.95820  -8.25930  -1.97270 Cl  0  0  0  0  0  0
   8.42100  -9.89000  -1.32190 O   0  0  0  0  0  0
   9.68140 -11.72590  -1.26190 O   0  0  0  0  0  0
  18.26200  -9.94200  -1.35600 O   0  0  0  0  0  0
  17.01920 -11.78520  -1.21530 O   0  0  0  0  0  0
  10.77920  -9.23880  -2.69160 H   0  0  0  0  0  0
  12.28220 -11.00590  -2.75470 H   0  0  0  0  0  0
  14.65940 -10.56350  -2.75150 H   0  0  0  0  0  0
  15.62030  -9.56090   0.00000 H   0  0  0  0  0  0
  13.28020 -10.11840  -0.08720 H   0  0  0  0  0  0
   7.58260 -10.41710  -1.11390 H   0  0  0  0  0  0
  19.11360 -10.48110  -1.44690 H   0  0  0  0  0  0
  1  2  1  0  0  0
  2  3  1  0  0  0
  3  4  1  0  0  0
  4  5  1  0  0  0
  5  6  1  0  0  0
  6  7  1  0  0  0
  2  8  1  0  0  0
  3  9  1  0  0  0
  4 10  1  0  0  0
  5 11  1  0  0  0
  6 12  1  0  0  0
  1 13  1  0  0  0
  1 14  2  0  0  0
  7 15  1  0  0  0
  7 16  2  0  0  0
 17  2  1  0  0  0
 18  3  1  0  0  0
 19  5  1  0  0  0
 20  6  1  0  0  0
 21  4  1  0  0  0
 22 13  1  0  0  0
 23 15  1  0  0  0
M  END
