CIP:3R;
__Jmol-14_06031715033D 1   1.00000     0.00000     0
Jmol version 14.17.2  2017-05-27 15:31 EXTRACT: ({0:11})
 12 11  0  0  0  0              1 V2000
   4.44549   0.74742   0.14696 C   0  0  0  0  0  0
   3.05756   0.06756   0.07277 C   0  0  0  0  0  0
   1.96188   0.79696   0.90232 C   0  0  0  0  0  0
   0.69594   0.07701   0.86295 C   0  0  0  0  0  0
   0.36949  -0.89290   1.72702 O   0  0  0  0  0  0
   1.75431   2.11951   0.40220 O   0  0  0  0  0  0
   2.29981   0.89628   1.93953 H   0  0  0  0  0  0
   4.57994   1.65915   0.74750 H   0  0  0  0  0  0
   5.29777   0.31900  -0.40085 H   0  0  0  0  0  0
   2.86395  -0.84452  -0.51085 H   0  0  0  0  0  0
  -0.03079   0.34433   0.08166 H   0  0  0  0  0  0
   1.44360   2.07200  -0.54712 H   0  0  0  0  0  0
  1  2  2  0  0  0
  2  3  1  0  0  0
  3  4  1  0  0  0
  4  5  2  0  0  0
  3  6  1  0  0  0
  3  7  1  0  0  0
  8  1  1  0  0  0
  9  1  1  0  0  0
 10  2  1  0  0  0
 11  4  1  0  0  0
 12  6  1  0  0  0
M  END
