CIP:1R;
__Jmol-14_06031715043D 1   1.00000     0.00000     0
Jmol version 14.17.2  2017-05-27 15:31 EXTRACT: ({0:18})
 19 19  0  0  0  0              1 V2000
   1.86828   0.85514  -0.20468 S   0  0  0  0  0  0
   2.05345   2.25033   0.14120 O   0  0  0  0  0  0
   2.74414   0.56773  -1.82275 S   0  0  0  0  0  0
   2.60424  -0.03942   0.98732 O   0  0  0  0  0  0
   2.01554  -1.32116   1.04012 C   0  0  0  0  0  0
   0.07967   0.54024  -0.31205 C   0  0  0  0  0  0
  -0.47441  -0.44254  -1.14846 C   0  0  0  0  0  0
  -1.84851  -0.69472  -1.13896 C   0  0  0  0  0  0
  -2.68611   0.02904  -0.29289 C   0  0  0  0  0  0
  -2.15386   1.00830   0.54195 C   0  0  0  0  0  0
  -0.78134   1.26034   0.53147 C   0  0  0  0  0  0
   2.14412  -1.82398   0.07025 H   0  0  0  0  0  0
   0.94282  -1.22312   1.26289 H   0  0  0  0  0  0
   2.50086  -1.91542   1.82836 H   0  0  0  0  0  0
   0.18032  -1.01971  -1.81794 H   0  0  0  0  0  0
  -2.26982  -1.46595  -1.80055 H   0  0  0  0  0  0
  -3.76737  -0.17299  -0.28441 H   0  0  0  0  0  0
  -2.81426   1.58225   1.20863 H   0  0  0  0  0  0
  -0.36775   2.03487   1.19407 H   0  0  0  0  0  0
  2  1  2  0  0  0
  3  1  2  0  0  0
  4  1  1  0  0  0
  6  1  1  0  0  0
  5  4  1  0  0  0
  7  6  2  0  0  0
 11  6  1  0  0  0
  8  7  1  0  0  0
  9  8  2  0  0  0
 10  9  1  0  0  0
 11 10  2  0  0  0
 12  5  1  0  0  0
 13  5  1  0  0  0
 14  5  1  0  0  0
 15  7  1  0  0  0
 16  8  1  0  0  0
 17  9  1  0  0  0
 18 10  1  0  0  0
 19 11  1  0  0  0
M  END
