CIP:1S;
__Jmol-14_06031715043D 1   1.00000     0.00000     0
Jmol version 14.17.2  2017-05-27 15:31 EXTRACT: ({0:4})
  5  4  0  0  0  0              1 V2000
   0.41621  -0.57573  -2.07112 C   0  0  0  0  0  0
   1.08084  -1.35691  -2.96843 F   0  0  0  0  0  0
   1.56934   0.45879  -1.20943 Cl  0  0  0  0  0  0
  -0.89743   0.52227  -3.00166 Br  0  0  0  0  0  0
  -0.11563  -1.21296  -1.36404 H   0  0  0  0  0  0
  1  2  1  0  0  0
  1  3  1  0  0  0
  1  4  1  0  0  0
  1  5  1  0  0  0
M  END
