CIP:9S;
__Jmol-14_06031715043D 1   1.00000     0.00000     0
Jmol version 14.17.2  2017-05-27 15:31 EXTRACT: ({0:30})
 31 32  0  0  0  0              1 V2000
   0.93688   0.30028   0.64798 C   0  0  0  0  0  0
   0.00469  -0.00125   0.00129 C   0  0  0  0  0  0
  -1.16422  -0.37932  -0.80968 C   0  0  0  0  0  0
  -1.42269  -1.81717  -0.65546 N   0  0  0  0  0  0
  -0.32597  -2.61275  -1.22159 C   0  0  0  0  0  0
  -0.55764  -4.09413  -0.91519 C   0  0  0  0  0  0
  -1.89506  -4.53204  -1.51860 C   0  0  0  0  0  0
  -3.01429  -3.65600  -0.94897 C   0  0  0  0  0  0
  -2.71138  -2.18735  -1.25442 C   0  0  0  0  0  0
  -2.66507  -2.04289  -2.33379 H   0  0  0  0  0  0
  -3.80057  -1.31965  -0.67828 C   0  0  0  0  0  0
  -4.81693  -0.83757  -1.48912 C   0  0  0  0  0  0
  -5.79764  -0.04305  -0.91589 C   0  0  0  0  0  0
  -5.73036   0.24024   0.43529 C   0  0  0  0  0  0
  -4.74862  -0.23525   1.17606 N   0  0  0  0  0  0
  -3.80226  -0.99910   0.66588 C   0  0  0  0  0  0
   1.77064   0.57002   1.22644 H   0  0  0  0  0  0
  -2.03549   0.18433  -0.47621 H   0  0  0  0  0  0
  -0.96659  -0.15607  -1.85811 H   0  0  0  0  0  0
  -0.29082  -2.46639  -2.30120 H   0  0  0  0  0  0
   0.61881  -2.29423  -0.78114 H   0  0  0  0  0  0
   0.24844  -4.68585  -1.34906 H   0  0  0  0  0  0
  -0.57912  -4.24339   0.16425 H   0  0  0  0  0  0
  -1.86012  -4.41946  -2.60218 H   0  0  0  0  0  0
  -2.08461  -5.57520  -1.26577 H   0  0  0  0  0  0
  -3.96337  -3.93468  -1.40690 H   0  0  0  0  0  0
  -3.07444  -3.79841   0.12998 H   0  0  0  0  0  0
  -4.84363  -1.07519  -2.54238 H   0  0  0  0  0  0
  -6.60393   0.34995  -1.51747 H   0  0  0  0  0  0
  -6.49048   0.85854   0.88959 H   0  0  0  0  0  0
  -3.01687  -1.37464   1.30511 H   0  0  0  0  0  0
  1  2  3  0  0  0
  1 17  1  0  0  0
  2  3  1  0  0  0
  3  4  1  0  0  0
  3 18  1  0  0  0
  3 19  1  0  0  0
  4  9  1  0  0  0
  4  5  1  0  0  0
  5  6  1  0  0  0
  5 20  1  0  0  0
  5 21  1  0  0  0
  6  7  1  0  0  0
  6 22  1  0  0  0
  6 23  1  0  0  0
  7  8  1  0  0  0
  7 24  1  0  0  0
  7 25  1  0  0  0
  8  9  1  0  0  0
  8 26  1  0  0  0
  8 27  1  0  0  0
  9 10  1  0  0  0
  9 11  1  0  0  0
 11 16  2  0  0  0
 11 12  1  0  0  0
 12 13  2  0  0  0
 12 28  1  0  0  0
 13 14  1  0  0  0
 13 29  1  0  0  0
 14 15  2  0  0  0
 14 30  1  0  0  0
 15 16  1  0  0  0
 16 31  1  0  0  0
M  END
