CIP:R;
__Jmol-14_05291710533D 1   1.00000     0.00000     0
Jmol version 14.17.2  2017-05-27 15:31 EXTRACT: ({0:32})
 33 33  0  0  0  0              1 V2000
   1.28440  -1.46190  -0.10990 N   0  3  0  0  0  0
   1.89970  -2.18640  -1.29900 C   0  0  0  0  0  0
   1.80520  -0.01820  -0.13290 C   0  0  0  0  0  0
   1.81560  -2.14500   1.15710 C   0  0  0  0  0  0
  -0.19170  -1.45500  -0.09660 C   0  0  0  0  0  0
  -1.00720  -2.04290  -1.11200 C   0  0  0  0  0  0
  -2.41320  -2.00550  -1.06861 C   0  0  0  0  0  0
  -3.06600  -1.37830   0.00180 C   0  0  0  0  0  0
  -2.31010  -0.79260   1.02640 C   0  0  0  0  0  0
  -0.90620  -0.83070   0.97020 C   0  0  0  0  0  0
   1.35080  -3.59910   1.45370 C   0  0  0  0  0  0
   1.31980   0.92160  -1.28540 C   0  0  0  0  0  0
   1.83890   2.37510  -1.15790 C   0  0  0  0  0  0
   1.57300  -1.70348  -2.23177 H   0  0  0  0  0  0
   1.57426  -3.23715  -1.29667 H   0  0  0  0  0  0
   2.99651  -2.14215  -1.22790 H   0  0  0  0  0  0
   2.90497  -0.02950  -0.11365 H   0  0  0  0  0  0
   1.59473   0.45828   0.83595 H   0  0  0  0  0  0
   1.59891  -1.51031   2.02900 H   0  0  0  0  0  0
   2.91502  -2.10944   1.15419 H   0  0  0  0  0  0
  -0.51723  -2.54382  -1.95994 H   0  0  0  0  0  0
  -3.00048  -2.46873  -1.87515 H   0  0  0  0  0  0
  -4.16495  -1.34605   0.03731 H   0  0  0  0  0  0
  -2.81461  -0.30399   1.87300 H   0  0  0  0  0  0
  -0.33365  -0.35948   1.78269 H   0  0  0  0  0  0
   1.65457  -4.25717   0.62625 H   0  0  0  0  0  0
   0.25578  -3.62040   1.55602 H   0  0  0  0  0  0
   1.81324  -3.94841   2.38865 H   0  0  0  0  0  0
   0.22225   0.90867  -1.35757 H   0  0  0  0  0  0
   1.58802   0.50055  -2.26559 H   0  0  0  0  0  0
   2.93877   2.37452  -1.17499 H   0  0  0  0  0  0
   1.48719   2.80828  -0.20992 H   0  0  0  0  0  0
   1.45950   2.97504  -1.99821 H   0  0  0  0  0  0
  1  2  1  0  0  0
  1  3  1  0  0  0
  1  4  1  0  0  0
  1  5  1  0  0  0
  6  7  2  0  0  0
  7  8  1  0  0  0
  8  9  2  0  0  0
  9 10  1  0  0  0
  5  6  1  0  0  0
  5 10  2  0  0  0
  4 11  1  0  0  0
  3 12  1  0  0  0
 12 13  1  0  0  0
 14  2  1  0  0  0
 15  2  1  0  0  0
 16  2  1  0  0  0
 17  3  1  0  0  0
 18  3  1  0  0  0
 19  4  1  0  0  0
 20  4  1  0  0  0
 21  6  1  0  0  0
 22  7  1  0  0  0
 23  8  1  0  0  0
 24  9  1  0  0  0
 25 10  1  0  0  0
 26 11  1  0  0  0
 27 11  1  0  0  0
 28 11  1  0  0  0
 29 12  1  0  0  0
 30 12  1  0  0  0
 31 13  1  0  0  0
 32 13  1  0  0  0
 33 13  1  0  0  0
M  END
