CIP:ZZ;
__Jmol-14_05291710533D 1   1.00000     0.00000     0
Jmol version 14.17.2  2017-05-27 15:31 EXTRACT: ({0:11})
 12 11  0  0  0  0              1 V2000
  11.11140 -11.56770  -0.87930 C   0  0  0  0  0  0
  11.91020 -10.30130  -1.09440 C   0  0  0  0  0  0
  13.25370 -10.31600  -1.10840 C   0  0  0  0  0  0
  14.02840 -11.60060  -0.91550 C   0  0  0  0  0  0
  10.04260 -11.32100  -0.70050 H   0  0  0  0  0  0
  11.19560 -12.20280  -1.78810 H   0  0  0  0  0  0
  11.49750 -12.12630   0.00000 H   0  0  0  0  0  0
  11.37540  -9.33840  -1.24010 H   0  0  0  0  0  0
  13.80670  -9.36570  -1.26960 H   0  0  0  0  0  0
  13.62610 -12.17300  -0.05260 H   0  0  0  0  0  0
  13.94040 -12.21400  -1.83890 H   0  0  0  0  0  0
  15.09920 -11.37520  -0.72270 H   0  0  0  0  0  0
  1  2  1  0  0  0
  2  3  2  0  0  0
  3  4  1  0  0  0
  5  1  1  0  0  0
  6  1  1  0  0  0
  7  1  1  0  0  0
  8  2  1  0  0  0
  9  3  1  0  0  0
 10  4  1  0  0  0
 11  4  1  0  0  0
 12  4  1  0  0  0
M  END
