CIP:15R;
__Jmol-14_06031715043D 1   1.00000     0.00000     0
Jmol version 14.17.2  2017-05-27 15:31 EXTRACT: ({0:23})
 24 25  0  0  0  0              1 V2000
  -0.87898  -0.74591  -1.22538 C   0  0  0  0  0  0
   0.34615  -0.14088  -1.43848 C   0  0  0  0  0  0
   1.50475  -0.74998  -0.99800 C   0  0  0  0  0  0
   1.43840  -1.97139  -0.33983 C   0  0  0  0  0  0
   0.20620  -2.57617  -0.12706 C   0  0  0  0  0  0
  -0.94847  -1.96193  -0.57051 C   0  0  0  0  0  0
   2.60957  -2.59105   0.10697 N   0  5  0  0  0  0
   3.70332  -1.84739   0.38688 C   0  0  0  0  0  0
   3.60691  -0.55739   0.60787 N   0  0  0  0  0  0
   4.66570   0.20582   0.88667 C   0  0  0  0  0  0
   4.47107   1.39200   1.07618 O   0  0  0  0  0  0
   5.92604  -0.23719   0.97353 N   0  0  0  0  0  0
   6.23054  -1.53940   0.77787 C   0  0  0  0  0  0
   7.37166  -1.94109   0.85687 O   0  0  0  0  0  0
   5.08054  -2.47796   0.46187 C   0  0  0  0  0  0
   5.05564  -3.25794   1.22286 H   0  0  0  0  0  0
   5.36155  -3.12010  -0.83255 C   0  0  0  0  0  0
   5.57842  -3.61562  -1.83149 N   0  0  0  0  0  0
  -1.78376  -0.26549  -1.56717 H   0  0  0  0  0  0
   0.39710   0.80877  -1.95023 H   0  0  0  0  0  0
   2.46123  -0.27735  -1.16537 H   0  0  0  0  0  0
   0.15120  -3.52598   0.38398 H   0  0  0  0  0  0
  -1.90687  -2.43179  -0.40572 H   0  0  0  0  0  0
   6.63622   0.39004   1.18102 H   0  0  0  0  0  0
  1  6  2  0  0  0
  1  2  1  0  0  0
  1 19  1  0  0  0
  2  3  2  0  0  0
  2 20  1  0  0  0
  3  4  1  0  0  0
  3 21  1  0  0  0
  4  5  2  0  0  0
  4  7  1  0  0  0
  5  6  1  0  0  0
  5 22  1  0  0  0
  6 23  1  0  0  0
  7  8  1  0  0  0
  8 15  1  0  0  0
  8  9  2  0  0  0
  9 10  1  0  0  0
 10 11  2  0  0  0
 10 12  1  0  0  0
 12 13  1  0  0  0
 12 24  1  0  0  0
 13 14  2  0  0  0
 13 15  1  0  0  0
 15 16  1  0  0  0
 15 17  1  0  0  0
 17 18  3  0  0  0
M  END
