CIP:RRSSSSRS;
__Jmol-14_05291710533D 1   1.00000     0.00000     0
Jmol version 14.17.2  2017-05-27 15:31 EXTRACT: ({0:48})
 49 53  0  0  0  0              1 V2000
   2.78125  -5.43968  -0.63735 C   0  0  0  0  0  0
   3.91757  -5.01188   0.28919 C   0  0  0  0  0  0
   5.22066  -5.79607   0.02470 C   0  0  0  0  0  0
   5.11817  -7.30083   0.14908 C   0  0  0  0  0  0
   4.18157  -7.58875  -1.02876 C   0  0  0  0  0  0
   4.00931  -9.07075  -1.39597 C   0  0  0  0  0  0
   4.93041  -6.76949  -2.04564 C   0  0  0  0  0  0
   5.03867  -7.05692  -3.22974 O   0  0  0  0  0  0
   5.54211  -5.68805  -1.39225 O   0  0  0  0  0  0
   2.76297  -6.95638  -0.84887 C   0  0  0  0  0  0
   2.07634  -7.57116   0.25345 O   0  0  0  0  0  0
   4.68720  -7.63559   1.10515 H   0  0  0  0  0  0
   6.65432  -7.69322   0.05704 C   0  0  0  0  0  0
   7.08662  -9.11480   0.34107 C   0  0  0  0  0  0
   8.22984  -9.50141   0.51677 O   0  0  0  0  0  0
   6.10912  -9.99985   0.16057 O   0  0  0  0  0  0
   7.39696  -6.58897   0.87218 C   0  0  0  0  0  0
   6.30900  -5.52504   1.09877 C   0  0  0  0  0  0
   6.79771  -4.10815   1.48185 C   0  0  0  0  0  0
   8.29996  -3.82763   1.30687 C   0  0  0  0  0  0
   9.19566  -5.08304   1.16739 C   0  0  0  0  0  0
   8.58642  -5.98956   0.11368 C   0  0  0  0  0  0
   9.19677  -6.02254   2.34673 C   0  0  0  0  0  0
   8.02377  -6.94874   2.24883 C   0  0  0  0  0  0
  10.20216  -6.21157   3.22420 C   0  0  0  0  0  0
  10.52509  -4.69498   0.83242 O   0  0  0  0  0  0
   5.78153  -5.82134   2.01813 H   0  0  0  0  0  0
   2.91264  -4.94499  -1.60978 H   0  0  0  0  0  0
   1.82735  -5.08607  -0.23666 H   0  0  0  0  0  0
   3.60023  -5.14289   1.32976 H   0  0  0  0  0  0
   4.08357  -3.94174   0.13935 H   0  0  0  0  0  0
   3.21021  -9.20877  -2.12930 H   0  0  0  0  0  0
   3.73015  -9.66683  -0.51902 H   0  0  0  0  0  0
   4.90686  -9.49589  -1.85386 H   0  0  0  0  0  0
   2.45963  -7.27966   1.09417 H   0  0  0  0  0  0
   6.97620  -7.59848  -0.98911 H   0  0  0  0  0  0
   6.57464 -10.81734  -0.10745 H   0  0  0  0  0  0
   6.60302  -3.98962   2.55536 H   0  0  0  0  0  0
   6.19379  -3.31688   1.02986 H   0  0  0  0  0  0
   8.65947  -3.19815   2.12690 H   0  0  0  0  0  0
   8.42295  -3.20946   0.41461 H   0  0  0  0  0  0
   9.30099  -6.76206  -0.20755 H   0  0  0  0  0  0
   8.30083  -5.44252  -0.78874 H   0  0  0  0  0  0
   7.33328  -6.78813   3.08656 H   0  0  0  0  0  0
   8.36781  -7.97913   2.31571 H   0  0  0  0  0  0
  10.16756  -7.00227   3.96366 H   0  0  0  0  0  0
  11.10239  -5.61040   3.17981 H   0  0  0  0  0  0
  10.47771  -4.06442   0.09253 H   0  0  0  0  0  0
   2.15072  -7.15618  -1.73348 H   0  0  0  0  0  0
  1  2  1  0  0  0
  3  2  1  0  0  0
  4  3  1  0  0  0
  5  4  1  0  0  0
  5  6  1  0  0  0
  5  7  1  0  0  0
  7  8  2  0  0  0
  7  9  1  0  0  0
  3  9  1  0  0  0
 10  5  1  0  0  0
 10 11  1  0  0  0
  1 10  1  0  0  0
  4 12  1  0  0  0
  4 13  1  0  0  0
 13 14  1  0  0  0
 14 15  2  0  0  0
 14 16  1  0  0  0
 13 17  1  0  0  0
 18 17  1  0  0  0
 18 19  1  0  0  0
 20 19  1  0  0  0
 21 20  1  0  0  0
 21 22  1  0  0  0
 17 22  1  0  0  0
 21 23  1  0  0  0
 24 23  1  0  0  0
 17 24  1  0  0  0
 23 25  2  0  0  0
 21 26  1  0  0  0
 18 27  1  0  0  0
  3 18  1  0  0  0
  1 28  1  0  0  0
  1 29  1  0  0  0
  2 30  1  0  0  0
  2 31  1  0  0  0
  6 32  1  0  0  0
  6 33  1  0  0  0
  6 34  1  0  0  0
 11 35  1  0  0  0
 13 36  1  0  0  0
 16 37  1  0  0  0
 19 38  1  0  0  0
 19 39  1  0  0  0
 20 40  1  0  0  0
 20 41  1  0  0  0
 22 42  1  0  0  0
 22 43  1  0  0  0
 24 44  1  0  0  0
 24 45  1  0  0  0
 25 46  1  0  0  0
 25 47  1  0  0  0
 26 48  1  0  0  0
 49 10  1  0  0  0
M  END
