CIP:1S;
__Jmol-14_06031715043D 1   1.00000     0.00000     0
Jmol version 14.17.2  2017-05-27 15:31 EXTRACT: ({0:4})
  5  4  0  0  0  0              1 V2000
  -0.49930   0.46735   2.08851 C   0  0  0  0  0  0
   0.25443   1.15565   2.98270 F   0  0  0  0  0  0
   0.48754  -0.78108   1.30595 Cl  0  0  0  0  0  0
  -2.01259  -0.35758   2.99908 Br  0  0  0  0  0  0
  -0.89120   1.15993   1.33506 H   0  0  0  0  0  0
  1  2  1  0  0  0
  1  3  1  0  0  0
  1  4  1  0  0  0
  1  5  1  0  0  0
M  END
