CIP:ppSR;
__Jmol-14_05291710533D 1   1.00000     0.00000     0
Jmol version 14.17.2  2017-05-27 15:31 EXTRACT: ({0:12})
 13 12  0  0  0  0              1 V2000
   7.60490  -5.20270  -1.85780 C   0  0  0  0  0  0
   8.87870  -5.55160  -1.53400 C   0  0  0  0  0  0
  10.15230  -5.90430  -1.21170 C   0  0  0  0  0  0
  11.04750  -4.93770  -0.47711 C   0  0  0  0  0  0
  10.66780  -7.26660  -1.59280 C   0  0  0  0  0  0
   6.19850  -5.56210  -0.66210 Br  0  0  0  0  0  0
   9.20850  -8.36820  -2.23050 Br  0  0  0  0  0  0
  10.18960  -3.21551  -0.24681 Br  0  0  0  0  0  0
  11.59500  -7.13810  -2.58140 F   0  0  0  0  0  0
  12.18790  -4.76080  -1.19800 F   0  0  0  0  0  0
   7.39420  -4.70630  -2.82940 H   0  0  0  0  0  0
  11.29130  -5.36970   0.52050 H   0  0  0  0  0  0
  11.13230  -7.74530  -0.70000 H   0  0  0  0  0  0
  1  2  2  0  0  0
  2  3  2  0  0  0
  3  4  1  0  0  0
  3  5  1  0  0  0
  1  6  1  0  0  0
  5  7  1  0  0  0
  4  8  1  0  0  0
  5  9  1  0  0  0
  4 10  1  0  0  0
  1 11  1  0  0  0
  4 12  1  0  0  0
  5 13  1  0  0  0
M  END
