CIP:EESS;
__Jmol-14_05291710533D 1   1.00000     0.00000     0
Jmol version 14.17.2  2017-05-27 15:31 EXTRACT: ({0:29})
 30 32  0  0  0  0              1 V2000
   2.18670   4.64820   3.62740 C   0  0  0  0  0  0
   2.12310   5.60780   4.61900 C   0  0  0  0  0  0
   3.21540   6.02790   5.22560 N   0  0  0  0  0  0
   4.40860   5.55560   4.92430 C   0  0  0  0  0  0
   4.56370   4.59010   3.94870 C   0  0  0  0  0  0
   3.43170   4.11500   3.27900 C   0  0  0  0  0  0
   3.54870   3.08040   2.22590 C   0  0  0  0  0  0
   4.63980   2.63210   1.93290 O   0  0  0  0  0  0
   2.44530   2.63590   1.59231 N   0  0  0  0  0  0
   2.55600   1.65710   0.59610 N   0  0  0  0  0  0
   1.50790   1.23490  -0.00570 C   0  0  0  0  0  0
  -0.01810   1.48150   0.01020 C   0  0  0  0  0  0
   0.00210  -0.00410   0.00201 C   0  0  0  0  0  0
  -0.21360  -0.40760   1.00230 H   0  0  0  0  0  0
   1.15120   0.27021  -1.06160 C   0  0  0  0  0  0
   1.37110   0.66650  -2.06390 H   0  0  0  0  0  0
   1.51150  -1.19900  -1.21170 C   0  0  0  0  0  0
   0.11240  -1.81120  -1.37450 C   0  0  0  0  0  0
  -0.75040  -1.06000  -0.68780 C   0  0  0  0  0  0
   1.28820   4.31200   3.13140 H   0  0  0  0  0  0
   1.16580   6.02270   4.89800 H   0  0  0  0  0  0
   5.27680   5.92880   5.44710 H   0  0  0  0  0  0
   5.54450   4.20810   3.70650 H   0  0  0  0  0  0
   1.45780   3.04170   1.85740 H   0  0  0  0  0  0
  -0.28871   2.04700   0.91400 H   0  0  0  0  0  0
  -0.30590   2.05680  -0.88210 H   0  0  0  0  0  0
   2.15870  -1.32980  -2.09150 H   0  0  0  0  0  0
   2.04350  -1.53990  -0.31131 H   0  0  0  0  0  0
  -0.24380  -2.69520  -1.92370 H   0  0  0  0  0  0
  -1.82490  -1.29390  -0.71340 H   0  0  0  0  0  0
  1  6  2  0  0  0
  1  2  1  0  0  0
  1 20  1  0  0  0
  2  3  2  0  0  0
  2 21  1  0  0  0
  3  4  1  0  0  0
  4  5  2  0  0  0
  4 22  1  0  0  0
  5  6  1  0  0  0
  5 23  1  0  0  0
  6  7  1  0  0  0
  7  8  2  0  0  0
  7  9  1  0  0  0
  9 10  1  0  0  0
  9 24  1  0  0  0
 10 11  2  0  0  0
 11 15  1  0  0  0
 11 12  1  0  0  0
 12 13  1  0  0  0
 12 25  1  0  0  0
 12 26  1  0  0  0
 13 14  1  0  0  0
 13 19  1  0  0  0
 13 15  1  0  0  0
 15 16  1  0  0  0
 15 17  1  0  0  0
 17 18  1  0  0  0
 17 27  1  0  0  0
 17 28  1  0  0  0
 18 19  2  0  0  0
 18 29  1  0  0  0
 19 30  1  0  0  0
M  END
