CIP:4S 5R 8R;
__Jmol-14_06031715043D 1   1.00000     0.00000     0
Jmol version 14.17.2  2017-05-27 15:31 EXTRACT: ({0:41})
 42 43  0  0  0  0              1 V2000
   3.74689   0.89995  -0.13031 C   0  0  0  0  0  0
   2.94554   2.17686   0.09221 C   0  0  0  0  0  0
   1.56138   1.94681   0.64432 C   0  0  0  0  0  0
   0.82023   0.73702   0.09006 C   0  0  0  0  0  0
   1.66482  -0.54600  -0.19354 C   0  0  0  0  0  0
   2.94952  -0.12338  -0.94274 C   0  0  0  0  0  0
  -0.45769   0.33760   0.83707 C   0  0  0  0  0  0
  -1.32189  -0.48996  -0.11814 C   0  0  0  0  0  0
  -0.57728  -1.80348  -0.47004 C   0  0  0  0  0  0
   0.80791  -1.48782  -1.08103 C   0  0  0  0  0  0
   2.07224  -1.32612   1.08740 C   0  0  0  0  0  0
  -2.79202  -0.58802   0.38420 C   0  0  0  0  0  0
   1.00444   2.88688   1.42863 C   0  0  0  0  0  0
  -3.65570  -1.34296  -0.64283 C   0  0  0  0  0  0
  -3.36338   0.83366   0.59421 C   0  0  0  0  0  0
  -2.86894  -1.23593   1.65778 O   0  0  0  0  0  0
   0.49960   1.10881  -0.88946 H   0  0  0  0  0  0
   4.04864   0.48067   0.83296 H   0  0  0  0  0  0
   4.67243   1.14273  -0.65744 H   0  0  0  0  0  0
   2.84584   2.69306  -0.86534 H   0  0  0  0  0  0
   3.52101   2.84361   0.74658 H   0  0  0  0  0  0
   2.70249   0.30387  -1.91960 H   0  0  0  0  0  0
   3.58162  -0.99755  -1.14397 H   0  0  0  0  0  0
  -1.00217   1.21916   1.15362 H   0  0  0  0  0  0
  -0.24212  -0.21005   1.76007 H   0  0  0  0  0  0
  -1.39106   0.06527  -1.05976 H   0  0  0  0  0  0
  -1.12868  -2.40046  -1.19673 H   0  0  0  0  0  0
  -0.47584  -2.44096   0.41099 H   0  0  0  0  0  0
   0.64601  -1.02215  -2.05993 H   0  0  0  0  0  0
   1.34057  -2.42337  -1.29116 H   0  0  0  0  0  0
   2.81438  -2.09613   0.85900 H   0  0  0  0  0  0
   1.23584  -1.84893   1.56231 H   0  0  0  0  0  0
   2.49365  -0.67463   1.85796 H   0  0  0  0  0  0
   1.55387   3.77602   1.72037 H   0  0  0  0  0  0
  -0.02456   2.85805   1.76955 H   0  0  0  0  0  0
  -4.36796  -0.68121  -1.13838 H   0  0  0  0  0  0
  -4.21263  -2.16626  -0.18440 H   0  0  0  0  0  0
  -3.06190  -1.76146  -1.45735 H   0  0  0  0  0  0
  -3.12924   1.22389   1.59382 H   0  0  0  0  0  0
  -4.45377   0.85116   0.52644 H   0  0  0  0  0  0
  -2.96302   1.54282  -0.14207 H   0  0  0  0  0  0
  -2.41836  -2.09606   1.61563 H   0  0  0  0  0  0
  1  2  1  0  0  0
  2  3  1  0  0  0
  3  4  1  0  0  0
  4  5  1  0  0  0
  5  6  1  0  0  0
  6  1  1  0  0  0
  4  7  1  0  0  0
  7  8  1  0  0  0
  8  9  1  0  0  0
  9 10  1  0  0  0
 10  5  1  0  0  0
  5 11  1  0  0  0
  8 12  1  0  0  0
  3 13  2  0  0  0
 12 14  1  0  0  0
 12 15  1  0  0  0
 12 16  1  0  0  0
  4 17  1  0  0  0
  1 18  1  0  0  0
  1 19  1  0  0  0
  2 20  1  0  0  0
  2 21  1  0  0  0
  6 22  1  0  0  0
  6 23  1  0  0  0
  7 24  1  0  0  0
  7 25  1  0  0  0
  8 26  1  0  0  0
  9 27  1  0  0  0
  9 28  1  0  0  0
 10 29  1  0  0  0
 10 30  1  0  0  0
 11 31  1  0  0  0
 11 32  1  0  0  0
 11 33  1  0  0  0
 13 34  1  0  0  0
 13 35  1  0  0  0
 14 36  1  0  0  0
 14 37  1  0  0  0
 14 38  1  0  0  0
 15 39  1  0  0  0
 15 40  1  0  0  0
 15 41  1  0  0  0
 16 42  1  0  0  0
M  END
