CIP:R;
__Jmol-14_05291710533D 1   1.00000     0.00000     0
Jmol version 14.17.2  2017-05-27 15:31 EXTRACT: ({0:16})
 17 17  0  0  0  0              1 V2000
   1.71180  -0.63820  -1.20120 S   0  0  0  0  0  0
   1.93340  -2.10350  -0.96281 O   0  0  0  0  0  0
   2.70710   0.26190   0.01580 C   0  0  0  0  0  0
   0.09250  -0.25380  -0.49271 C   0  0  0  0  0  0
  -0.44891   1.02640  -0.65900 C   0  0  0  0  0  0
  -1.70100   1.33490  -0.12260 C   0  0  0  0  0  0
  -2.41881   0.36460   0.57550 C   0  0  0  0  0  0
  -1.88700  -0.91390   0.73950 C   0  0  0  0  0  0
  -0.63550  -1.22380   0.20420 C   0  0  0  0  0  0
   2.52308  -0.15192   1.01824 H   0  0  0  0  0  0
   2.42923   1.32613   0.00182 H   0  0  0  0  0  0
   3.77341   0.15810  -0.23360 H   0  0  0  0  0  0
   0.11357   1.79175  -1.21386 H   0  0  0  0  0  0
  -2.12090   2.34348  -0.25090 H   0  0  0  0  0  0
  -3.40524   0.60785   0.99714 H   0  0  0  0  0  0
  -2.45381  -1.67857   1.29087 H   0  0  0  0  0  0
  -0.22034  -2.23453   0.33092 H   0  0  0  0  0  0
  2  1  2  0  0  0
  3  1  1  0  0  0
  4  1  1  0  0  0
  5  4  1  0  0  0
  9  4  2  0  0  0
  6  5  2  0  0  0
  7  6  1  0  0  0
  8  7  2  0  0  0
  9  8  1  0  0  0
 10  3  1  0  0  0
 11  3  1  0  0  0
 12  3  1  0  0  0
 13  5  1  0  0  0
 14  6  1  0  0  0
 15  7  1  0  0  0
 16  8  1  0  0  0
 17  9  1  0  0  0
M  END
