CIP:SRSSR;
__Jmol-14_05291710533D 1   1.00000     0.00000     0
Jmol version 14.17.2  2017-05-27 15:31 EXTRACT: ({0:35})
 36 35  0  0  0  0              1 V2000
  -3.44720   1.45800  -0.53450 C   0  0  0  0  0  0
  -3.42500   0.13501  -1.35680 C   0  0  0  0  0  0
  -2.03150  -0.59490  -1.52700 C   0  0  0  0  0  0
  -1.44180  -1.23430  -0.20210 C   0  0  0  0  0  0
  -0.87710  -0.30130   0.93911 C   0  0  0  0  0  0
  -0.38371  -1.08870   2.21551 C   0  0  0  0  0  0
  -1.40430  -2.05350   2.87830 C   0  0  0  0  0  0
  -2.08610  -1.65470  -2.69400 C   0  0  0  0  0  0
  -3.02510  -2.86400  -2.46820 C   0  0  0  0  0  0
   0.18611   0.75521   0.46580 C   0  0  0  0  0  0
   1.56990   0.22311   0.02670 C   0  0  0  0  0  0
  -0.42550  -2.19440  -0.50100 O   0  0  0  0  0  0
   0.01590  -0.20021   3.19340 F   0  0  0  0  0  0
  -3.94570   0.44421  -2.59790 F   0  0  0  0  0  0
  -2.97470  -4.15650  -4.15090 I   0  0  0  0  0  0
   2.72360   1.70050  -0.43271 Br  0  0  0  0  0  0
  -2.58960  -1.42660   3.18120 F   0  0  0  0  0  0
  -4.53430   2.24960  -0.82640 F   0  0  0  0  0  0
  -2.26310  -1.81150   0.22371 H   0  0  0  0  0  0
  -2.50998   2.01742  -0.67113 H   0  0  0  0  0  0
  -3.39704   1.24730   0.54397 H   0  0  0  0  0  0
  -4.01141  -0.59811  -0.78350 H   0  0  0  0  0  0
  -1.32411   0.20464  -1.79221 H   0  0  0  0  0  0
  -1.75936   0.28247   1.24049 H   0  0  0  0  0  0
   0.43217  -1.71379   1.82356 H   0  0  0  0  0  0
  -0.97237  -2.52967   3.77088 H   0  0  0  0  0  0
  -1.57741  -2.93701   2.24628 H   0  0  0  0  0  0
  -2.34166  -1.15523  -3.64016 H   0  0  0  0  0  0
  -1.07046  -2.00868  -2.92458 H   0  0  0  0  0  0
  -4.05119  -2.54004  -2.23977 H   0  0  0  0  0  0
  -2.77530  -3.40025  -1.54082 H   0  0  0  0  0  0
  -0.24213   1.36993  -0.33963 H   0  0  0  0  0  0
   0.31829   1.51721   1.24802 H   0  0  0  0  0  0
   1.48307  -0.49546  -0.80163 H   0  0  0  0  0  0
   2.02078  -0.41772   0.79875 H   0  0  0  0  0  0
   0.36558  -1.72963  -0.89872 H   0  0  0  0  0  0
  1  2  1  0  0  0
  2  3  1  0  0  0
  3  4  1  0  0  0
  4  5  1  0  0  0
  5  6  1  0  0  0
  6  7  1  0  0  0
  8  9  1  0  0  0
  3  8  1  0  0  0
 10 11  1  0  0  0
  5 10  1  0  0  0
  4 12  1  0  0  0
  6 13  1  0  0  0
  2 14  1  0  0  0
  9 15  1  0  0  0
 11 16  1  0  0  0
  7 17  1  0  0  0
  1 18  1  0  0  0
  4 19  1  0  0  0
 20  1  1  0  0  0
 21  1  1  0  0  0
 22  2  1  0  0  0
 23  3  1  0  0  0
 24  5  1  0  0  0
 25  6  1  0  0  0
 26  7  1  0  0  0
 27  7  1  0  0  0
 28  8  1  0  0  0
 29  8  1  0  0  0
 30  9  1  0  0  0
 31  9  1  0  0  0
 32 10  1  0  0  0
 33 10  1  0  0  0
 34 11  1  0  0  0
 35 11  1  0  0  0
 36 12  1  0  0  0
M  END
