c:/jmol-dev/bobtest/cip/S/(S)-cyclobutyl(cyclopropyl)methanol_2D.mol
__Jmol-14_05291710533D 1   1.00000     0.00000     0
Jmol version 14.17.2  2017-05-27 15:31 EXTRACT: ({0:22})
 23 24  0  0  0  0              1 V2000
  -1.96146   0.68361   0.11438 C   0  0  0  0  0  0
  -2.03450   1.92217   1.00949 C   0  0  0  0  0  0
  -0.92685   2.55282   0.15252 C   0  0  0  0  0  0
  -0.55040   1.13378  -0.33407 C   0  0  0  0  0  0
   0.64492   0.40905   0.31237 C   0  0  0  0  0  0
   0.56452  -1.09651   0.16215 C   0  0  0  0  0  0
   1.30506  -1.81963  -0.93551 C   0  0  0  0  0  0
  -0.19130  -1.78204  -0.96045 C   0  0  0  0  0  0
   0.70792   0.69331   1.70971 O   0  0  0  0  0  0
  -2.69131   0.68628  -0.70571 H   0  0  0  0  0  0
  -2.04416  -0.26888   0.64324 H   0  0  0  0  0  0
  -1.74134   1.72795   2.04866 H   0  0  0  0  0  0
  -2.99333   2.44245   1.00912 H   0  0  0  0  0  0
  -0.16887   3.12148   0.69121 H   0  0  0  0  0  0
  -1.31979   3.19102  -0.64929 H   0  0  0  0  0  0
  -0.43154   1.11305  -1.42143 H   0  0  0  0  0  0
   1.58322   0.77380  -0.12626 H   0  0  0  0  0  0
   0.53773  -1.58639   1.13188 H   0  0  0  0  0  0
   1.78182  -2.75782  -0.69288 H   0  0  0  0  0  0
   1.83294  -1.23620  -1.68281 H   0  0  0  0  0  0
  -0.73798  -2.68058  -0.70817 H   0  0  0  0  0  0
  -0.66102  -1.19834  -1.74754 H   0  0  0  0  0  0
   0.84830   1.65044   1.81945 H   0  0  0  0  0  0
  1  2  1  0  0  0
  2  3  1  0  0  0
  3  4  1  0  0  0
  4  5  1  0  0  0
  5  6  1  0  0  0
  6  7  1  0  0  0
  7  8  1  0  0  0
  1  4  1  0  0  0
  6  8  1  0  0  0
  5  9  1  0  0  0
  1 10  1  0  0  0
  1 11  1  0  0  0
  2 12  1  0  0  0
  2 13  1  0  0  0
  3 14  1  0  0  0
  3 15  1  0  0  0
  4 16  1  0  0  0
  5 17  1  0  0  0
  6 18  1  0  0  0
  7 19  1  0  0  0
  7 20  1  0  0  0
  8 21  1  0  0  0
  8 22  1  0  0  0
  9 23  1  0  0  0
M  END
