c:/jmol-dev/bobtest/cip/S/(S)-bromo(chloro)fluoromethane_03.sdf
__Jmol-14_05291710533D 1   1.00000     0.00000     0
Jmol version 14.17.2  2017-05-27 15:31 EXTRACT: ({0:4})
  5  4  0  0  0  0              1 V2000
  -0.95314   1.99767  -0.62612 C   0  0  0  0  0  0
  -0.59577   2.65170  -1.76393 F   0  0  0  0  0  0
  -0.45591   0.29925  -0.72967 Cl  0  0  0  0  0  0
  -2.88328   2.10960  -0.38175 Br  0  0  0  0  0  0
  -0.47149   2.47581   0.23136 H   0  0  0  0  0  0
  1  2  1  0  0  0
  1  3  1  0  0  0
  1  4  1  0  0  0
  1  5  1  0  0  0
M  END
$$$$
