c:/jmol-dev/bobtest/cip/S/S.sdf
__Jmol-14_05291710533D 1   1.00000     0.00000     0
Jmol version 14.17.2  2017-05-27 15:31 EXTRACT: ({0:8})
  9  8  0  0  0  0              1 V2000
  -2.16422  -0.01097   0.00999 C   0  0  0  0  0  0
  -2.35011   0.59373   1.66509 Cl  0  0  0  0  0  0
  -3.24063   0.48423  -0.76090 O   0  0  0  0  0  0
  -2.16805  -1.52821  -0.03007 C   0  0  0  0  0  0
  -1.22746   0.38765  -0.39756 H   0  0  0  0  0  0
  -3.32434   1.41978  -0.50249 H   0  0  0  0  0  0
  -2.06133  -1.87906  -1.05769 H   0  0  0  0  0  0
  -3.11825  -1.93242   0.33956 H   0  0  0  0  0  0
  -1.35116  -1.95137   0.56664 H   0  0  0  0  0  0
  1  2  1  0  0  0
  1  3  1  0  0  0
  1  4  1  0  0  0
  1  5  1  0  0  0
  3  6  1  0  0  0
  4  7  1  0  0  0
  4  8  1  0  0  0
  4  9  1  0  0  0
M  END
$$$$
