(3sa,4S,5R)-1,4-dibromo-3-[bromo(fluoro)methyl]-4-fluorobuta-1,2-diene
  ACD/Labs09291019313D

 13 12  0  0  0  0  0  0  0  0  1 V2000
    7.6049   -5.2027   -1.8578 C   0  0  0  0  0  0  0  0  0  0  0  0
    8.8787   -5.5516   -1.5340 C   0  0  0  0  0  0  0  0  0  0  0  0
   10.1523   -5.9043   -1.2117 C   0  0  0  0  0  0  0  0  0  0  0  0
   11.0475   -4.9377   -0.4771 C   0  0  0  0  0  0  0  0  0  0  0  0
   10.6678   -7.2666   -1.5928 C   0  0  0  0  0  0  0  0  0  0  0  0
    6.1985   -5.5621   -0.6621 Br  0  0  0  0  0  0  0  0  0  0  0  0
    9.2085   -8.3682   -2.2305 Br  0  0  0  0  0  0  0  0  0  0  0  0
   10.1896   -3.2155   -0.2468 Br  0  0  0  0  0  0  0  0  0  0  0  0
   11.5950   -7.1381   -2.5814 F   0  0  0  0  0  0  0  0  0  0  0  0
   12.1879   -4.7608   -1.1980 F   0  0  0  0  0  0  0  0  0  0  0  0
    7.3942   -4.7063   -2.8294 H   0  0  0  0  0  0  0  0  0  0  0  0
   11.2913   -5.3697    0.5205 H   0  0  0  0  0  0  0  0  0  0  0  0
   11.1323   -7.7453   -0.7000 H   0  0  0  0  0  0  0  0  0  0  0  0
  1  2  2  0  0  0  0
  2  3  2  0  0  0  0
  3  4  1  0  0  0  0
  3  5  1  0  0  0  0
  1  6  1  0  0  0  0
  5  7  1  0  0  0  0
  4  8  1  0  0  0  0
  5  9  1  0  0  0  0
  4 10  1  0  0  0  0
  1 11  1  0  0  0  0
  4 12  1  0  0  0  0
  5 13  1  0  0  0  0
M  END
