
 OpenBabel05041720273D

 78 85  0  0  0  0  0  0  0  0999 V2000
   -0.1975   -5.6143    2.9571 C   0  0  0  0  0  0  0  0  0  0  0  0
    0.8499   -4.6655    2.8701 C   0  0  0  0  0  0  0  0  0  0  0  0
    1.5699   -4.2701    4.0103 C   0  0  0  0  0  0  0  0  0  0  0  0
    1.2931   -4.8146    5.2594 C   0  0  0  0  0  0  0  0  0  0  0  0
    0.2929   -5.7659    5.3789 C   0  0  0  0  0  0  0  0  0  0  0  0
   -0.4334   -6.1563    4.2495 C   0  0  0  0  0  0  0  0  0  0  0  0
   -0.9303   -5.9959    1.7578 C   0  0  0  0  0  0  0  0  0  0  0  0
   -0.5282   -5.4847    0.4847 C   0  0  0  0  0  0  0  0  0  0  0  0
    0.5446   -4.5583    0.4777 C   0  0  0  0  0  0  0  0  0  0  0  0
    1.1938   -4.1367    1.6349 C   0  0  0  0  0  0  0  0  0  0  0  0
   -1.9606   -7.0659    1.9109 C   0  0  0  0  0  0  0  0  0  0  0  0
   -3.2974   -6.8082    2.3450 C   0  0  0  0  0  0  0  0  0  0  0  0
   -4.1275   -7.9385    2.5515 C   0  0  0  0  0  0  0  0  0  0  0  0
   -3.6999   -9.2483    2.3434 C   0  0  0  0  0  0  0  0  0  0  0  0
   -2.3928   -9.5133    1.9589 C   0  0  0  0  0  0  0  0  0  0  0  0
   -1.4967   -8.4379    1.7491 C   0  0  0  0  0  0  0  0  0  0  0  0
   -1.2077   -6.9068    4.3973 H   0  0  0  0  0  0  0  0  0  0  0  0
    1.8603   -4.5014    6.1306 H   0  0  0  0  0  0  0  0  0  0  0  0
    0.0692   -6.2076    6.3455 H   0  0  0  0  0  0  0  0  0  0  0  0
    2.3660   -3.5324    3.9288 H   0  0  0  0  0  0  0  0  0  0  0  0
    2.0026   -3.4145    1.5432 H   0  0  0  0  0  0  0  0  0  0  0  0
   -0.9758   -6.0852   -1.1942 P   0  0  2  0  0  0  0  0  0  0  0  0
    0.9371   -4.1610   -0.4579 H   0  0  0  0  0  0  0  0  0  0  0  0
   -4.4037  -10.0595    2.5192 H   0  0  0  0  0  0  0  0  0  0  0  0
   -4.1115   -5.2764    2.9201 P   0  0  2  0  0  0  0  0  0  0  0  0
   -5.1475   -7.8154    2.9181 H   0  0  0  0  0  0  0  0  0  0  0  0
   -1.9747  -10.8472    1.8067 C   0  0  0  0  0  0  0  0  0  0  0  0
   -0.6631  -11.1556    1.4609 C   0  0  0  0  0  0  0  0  0  0  0  0
   -0.1645   -8.8014    1.4094 C   0  0  0  0  0  0  0  0  0  0  0  0
   -2.6744  -11.6651    1.9696 H   0  0  0  0  0  0  0  0  0  0  0  0
    0.2466  -10.1296    1.2655 C   0  0  0  0  0  0  0  0  0  0  0  0
    0.5932   -8.0351    1.2539 H   0  0  0  0  0  0  0  0  0  0  0  0
    1.2780  -10.3519    1.0057 H   0  0  0  0  0  0  0  0  0  0  0  0
   -0.3526  -12.1910    1.3544 H   0  0  0  0  0  0  0  0  0  0  0  0
   -0.9224   -4.6275   -2.2903 C   0  0  0  0  0  0  0  0  0  0  0  0
   -0.3944   -4.7838   -3.5821 C   0  0  0  0  0  0  0  0  0  0  0  0
   -0.3148   -3.7015   -4.4637 C   0  0  0  0  0  0  0  0  0  0  0  0
   -0.7674   -2.4451   -4.0699 C   0  0  0  0  0  0  0  0  0  0  0  0
   -1.2999   -2.2706   -2.7962 C   0  0  0  0  0  0  0  0  0  0  0  0
   -1.3744   -3.3529   -1.9154 C   0  0  0  0  0  0  0  0  0  0  0  0
   -2.6766   -6.6659   -1.3465 C   0  0  0  0  0  0  0  0  0  0  0  0
   -3.7530   -5.8593   -1.7365 C   0  0  0  0  0  0  0  0  0  0  0  0
   -4.9954   -6.4137   -2.0672 C   0  0  0  0  0  0  0  0  0  0  0  0
   -5.2065   -7.7843   -1.9676 C   0  0  0  0  0  0  0  0  0  0  0  0
   -4.1621   -8.6057   -1.5662 C   0  0  0  0  0  0  0  0  0  0  0  0
   -2.9080   -8.0524   -1.2868 C   0  0  0  0  0  0  0  0  0  0  0  0
   -2.0968   -8.7340   -1.0377 H   0  0  0  0  0  0  0  0  0  0  0  0
   -6.1772   -8.2076   -2.2077 H   0  0  0  0  0  0  0  0  0  0  0  0
   -4.3072   -9.6794   -1.4889 H   0  0  0  0  0  0  0  0  0  0  0  0
   -3.6501   -4.7829   -1.8270 H   0  0  0  0  0  0  0  0  0  0  0  0
   -5.7994   -5.7612   -2.3979 H   0  0  0  0  0  0  0  0  0  0  0  0
   -0.0367   -5.7558   -3.9169 H   0  0  0  0  0  0  0  0  0  0  0  0
    0.1001   -3.8431   -5.4582 H   0  0  0  0  0  0  0  0  0  0  0  0
   -0.7075   -1.6043   -4.7557 H   0  0  0  0  0  0  0  0  0  0  0  0
   -1.6605   -1.2936   -2.4853 H   0  0  0  0  0  0  0  0  0  0  0  0
   -1.7986   -3.1887   -0.9300 H   0  0  0  0  0  0  0  0  0  0  0  0
   -5.3749   -4.7357    1.7343 C   0  0  0  0  0  0  0  0  0  0  0  0
   -5.7314   -3.3760    1.6332 C   0  0  0  0  0  0  0  0  0  0  0  0
   -6.7582   -2.9370    0.7892 C   0  0  0  0  0  0  0  0  0  0  0  0
   -7.4929   -3.8567    0.0546 C   0  0  0  0  0  0  0  0  0  0  0  0
   -7.1958   -5.2088    0.1678 C   0  0  0  0  0  0  0  0  0  0  0  0
   -6.1439   -5.6392    0.9892 C   0  0  0  0  0  0  0  0  0  0  0  0
   -7.7730   -5.9406   -0.3916 H   0  0  0  0  0  0  0  0  0  0  0  0
   -5.9482   -6.7061    1.0239 H   0  0  0  0  0  0  0  0  0  0  0  0
   -6.9875   -1.8768    0.7239 H   0  0  0  0  0  0  0  0  0  0  0  0
   -8.2971   -3.5236   -0.5949 H   0  0  0  0  0  0  0  0  0  0  0  0
   -5.2207   -2.6204    2.2268 H   0  0  0  0  0  0  0  0  0  0  0  0
   -2.9934   -3.9024    3.1713 C   0  0  0  0  0  0  0  0  0  0  0  0
   -2.4980   -3.0975    2.1394 C   0  0  0  0  0  0  0  0  0  0  0  0
   -1.6983   -1.9827    2.4112 C   0  0  0  0  0  0  0  0  0  0  0  0
   -1.3873   -1.6497    3.7268 C   0  0  0  0  0  0  0  0  0  0  0  0
   -1.8774   -2.4287    4.7696 C   0  0  0  0  0  0  0  0  0  0  0  0
   -2.6764   -3.5409    4.4926 C   0  0  0  0  0  0  0  0  0  0  0  0
   -2.7375   -3.3363    1.1077 H   0  0  0  0  0  0  0  0  0  0  0  0
   -1.3140   -1.3807    1.5929 H   0  0  0  0  0  0  0  0  0  0  0  0
   -0.7604   -0.7888    3.9398 H   0  0  0  0  0  0  0  0  0  0  0  0
   -1.6378   -2.1788    5.7993 H   0  0  0  0  0  0  0  0  0  0  0  0
   -3.0511   -4.1288    5.3287 H   0  0  0  0  0  0  0  0  0  0  0  0
  1  2  2  0  0  0  0
  1  7  1  0  0  0  0
  2  3  1  0  0  0  0
  3  4  2  0  0  0  0
  3 20  1  0  0  0  0
  4  5  1  0  0  0  0
  4 18  1  0  0  0  0
  5  6  2  0  0  0  0
  5 19  1  0  0  0  0
  6  1  1  0  0  0  0
  6 17  1  0  0  0  0
  7  8  2  0  0  0  0
  7 11  1  0  0  0  0
  8  9  1  0  0  0  0
  9 10  2  0  0  0  0
  9 23  1  0  0  0  0
 10  2  1  0  0  0  0
 10 21  1  0  0  0  0
 11 12  2  0  0  0  0
 12 13  1  0  0  0  0
 13 14  2  0  0  0  0
 13 26  1  0  0  0  0
 14 15  1  0  0  0  0
 14 24  1  0  0  0  0
 15 16  2  0  0  0  0
 15 27  1  0  0  0  0
 16 11  1  0  0  0  0
 16 29  1  0  0  0  0
 22  8  1  1  0  0  0
 22 35  1  0  0  0  0
 22 41  1  0  0  0  0
 25 12  1  6  0  0  0
 25 57  1  0  0  0  0
 25 68  1  0  0  0  0
 27 28  2  0  0  0  0
 27 30  1  0  0  0  0
 28 34  1  0  0  0  0
 29 31  2  0  0  0  0
 29 32  1  0  0  0  0
 31 28  1  0  0  0  0
 31 33  1  0  0  0  0
 35 36  1  0  0  0  0
 36 37  2  0  0  0  0
 36 52  1  0  0  0  0
 37 38  1  0  0  0  0
 37 53  1  0  0  0  0
 38 39  2  0  0  0  0
 38 54  1  0  0  0  0
 39 40  1  0  0  0  0
 39 55  1  0  0  0  0
 40 35  2  0  0  0  0
 40 56  1  0  0  0  0
 41 42  2  0  0  0  0
 41 46  1  0  0  0  0
 42 43  1  0  0  0  0
 42 50  1  0  0  0  0
 43 44  2  0  0  0  0
 43 51  1  0  0  0  0
 44 45  1  0  0  0  0
 44 48  1  0  0  0  0
 45 46  2  0  0  0  0
 45 49  1  0  0  0  0
 46 47  1  0  0  0  0
 57 58  1  0  0  0  0
 57 62  2  0  0  0  0
 58 59  2  0  0  0  0
 58 67  1  0  0  0  0
 59 60  1  0  0  0  0
 59 65  1  0  0  0  0
 60 61  2  0  0  0  0
 60 66  1  0  0  0  0
 61 62  1  0  0  0  0
 61 63  1  0  0  0  0
 62 64  1  0  0  0  0
 68 69  1  0  0  0  0
 69 70  2  0  0  0  0
 69 74  1  0  0  0  0
 70 71  1  0  0  0  0
 70 75  1  0  0  0  0
 71 72  2  0  0  0  0
 71 76  1  0  0  0  0
 72 73  1  0  0  0  0
 72 77  1  0  0  0  0
 73 68  2  0  0  0  0
 73 78  1  0  0  0  0
M  END
