(1r,3r)-cyclobutane-1,3-diol
  ACD/Labs07271016413D

 14 14  0  0  0  0  0  0  0  0  1 V2000
    8.7808  -10.2598   -1.2576 C   0  0  0  0  0  0  0  0  0  0  0  0
    9.0838  -10.3197    0.2390 C   0  0  0  0  0  0  0  0  0  0  0  0
   10.4742  -10.7154   -0.2674 C   0  0  0  0  0  0  0  0  0  0  0  0
   10.1787   -9.6451   -1.3221 C   0  0  0  0  0  0  0  0  0  0  0  0
    7.7917   -9.2766   -1.5262 O   0  0  0  0  0  0  0  0  0  0  0  0
   10.3984  -11.9970   -0.8740 O   0  0  0  0  0  0  0  0  0  0  0  0
    8.3960  -11.0909   -1.8864 H   0  0  0  0  0  0  0  0  0  0  0  0
    9.0247   -9.3524    0.7822 H   0  0  0  0  0  0  0  0  0  0  0  0
    8.5377  -11.1002    0.8108 H   0  0  0  0  0  0  0  0  0  0  0  0
   11.3999  -10.8123    0.3393 H   0  0  0  0  0  0  0  0  0  0  0  0
   10.7120   -9.7602   -2.2899 H   0  0  0  0  0  0  0  0  0  0  0  0
   10.2589   -8.5919   -0.9774 H   0  0  0  0  0  0  0  0  0  0  0  0
    7.0263   -9.4872   -2.1538 H   0  0  0  0  0  0  0  0  0  0  0  0
   11.1070  -12.6924   -0.6777 H   0  0  0  0  0  0  0  0  0  0  0  0
  1  2  1  0  0  0  0
  2  3  1  0  0  0  0
  3  4  1  0  0  0  0
  4  1  1  0  0  0  0
  1  5  1  0  0  0  0
  3  6  1  0  0  0  0
  7  1  1  0  0  0  0
  8  2  1  0  0  0  0
  9  2  1  0  0  0  0
 10  3  1  0  0  0  0
 11  4  1  0  0  0  0
 12  4  1  0  0  0  0
 13  5  1  0  0  0  0
 14  6  1  0  0  0  0
M  END
