
  Mrv0541 03091411143D          

 19 18  0  0  0  0            999 V2000
   -3.4472    1.4580   -0.5345 C   0  0  0  0  0  0  0  0  0  0  0  0
   -3.4250    0.1350   -1.3568 C   0  0  2  0  0  0  0  0  0  0  0  0
   -2.0315   -0.5949   -1.5270 C   0  0  1  0  0  0  0  0  0  0  0  0
   -1.4418   -1.2343   -0.2021 C   0  0  2  0  0  0  0  0  0  0  0  0
   -0.8771   -0.3013    0.9391 C   0  0  1  0  0  0  0  0  0  0  0  0
   -0.3837   -1.0887    2.2155 C   0  0  2  0  0  0  0  0  0  0  0  0
   -1.4043   -2.0535    2.8783 C   0  0  0  0  0  0  0  0  0  0  0  0
   -2.0861   -1.6547   -2.6940 C   0  0  0  0  0  0  0  0  0  0  0  0
   -3.0251   -2.8640   -2.4682 C   0  0  0  0  0  0  0  0  0  0  0  0
    0.1861    0.7552    0.4658 C   0  0  0  0  0  0  0  0  0  0  0  0
    1.5699    0.2231    0.0267 C   0  0  0  0  0  0  0  0  0  0  0  0
   -0.4255   -2.1944   -0.5010 O   0  0  0  0  0  0  0  0  0  0  0  0
    0.0159   -0.2002    3.1934 F   0  0  0  0  0  0  0  0  0  0  0  0
   -3.9457    0.4442   -2.5979 F   0  0  0  0  0  0  0  0  0  0  0  0
   -2.9747   -4.1565   -4.1509 I   0  0  0  0  0  0  0  0  0  0  0  0
    2.7236    1.7005   -0.4327 Br  0  0  0  0  0  0  0  0  0  0  0  0
   -2.5896   -1.4266    3.1812 F   0  0  0  0  0  0  0  0  0  0  0  0
   -4.5343    2.2496   -0.8264 F   0  0  0  0  0  0  0  0  0  0  0  0
   -2.2631   -1.8115    0.2237 H   0  0  0  0  0  0  0  0  0  0  0  0
  1  2  1  0  0  0  0
  2  3  1  0  0  0  0
  3  4  1  0  0  0  0
  4  5  1  0  0  0  0
  5  6  1  0  0  0  0
  6  7  1  0  0  0  0
  8  9  1  0  0  0  0
  3  8  1  0  0  0  0
 10 11  1  0  0  0  0
  5 10  1  0  0  0  0
  4 12  1  0  0  0  0
  6 13  1  0  0  0  0
  2 14  1  0  0  0  0
  9 15  1  0  0  0  0
 11 16  1  0  0  0  0
  7 17  1  0  0  0  0
  1 18  1  0  0  0  0
  4 19  1  0  0  0  0
M  END
