(2R,3s,4S)-2,3,4-trichloropentane
  ACD/Labs07271016373D

 17 16  0  0  0  0  0  0  0  0  1 V2000
    7.7687  -12.2608   -1.4917 C   0  0  0  0  0  0  0  0  0  0  0  0
    8.5869  -11.1961   -0.7599 C   0  0  0  0  0  0  0  0  0  0  0  0
    9.9535  -11.7679   -0.3785 C   0  0  0  0  0  0  0  0  0  0  0  0
   10.7838  -10.6873    0.3156 C   0  0  0  0  0  0  0  0  0  0  0  0
   12.1599  -11.2475    0.6773 C   0  0  0  0  0  0  0  0  0  0  0  0
    7.7292  -10.7000    0.7027 Cl  0  0  0  0  0  0  0  0  0  0  0  0
   10.7951  -12.3058   -1.8400 Cl  0  0  0  0  0  0  0  0  0  0  0  0
    9.9571  -10.1666    1.7871 Cl  0  0  0  0  0  0  0  0  0  0  0  0
    8.7303  -10.3169   -1.4309 H   0  0  0  0  0  0  0  0  0  0  0  0
   10.9096   -9.8205   -0.3744 H   0  0  0  0  0  0  0  0  0  0  0  0
    7.4456  -11.8656   -2.4785 H   0  0  0  0  0  0  0  0  0  0  0  0
    8.3924  -13.1679   -1.6424 H   0  0  0  0  0  0  0  0  0  0  0  0
    6.8742  -12.5210   -0.8861 H   0  0  0  0  0  0  0  0  0  0  0  0
    9.7454  -12.5278    0.4048 H   0  0  0  0  0  0  0  0  0  0  0  0
   12.9496  -10.6035    0.2345 H   0  0  0  0  0  0  0  0  0  0  0  0
   12.2733  -11.2654    1.7825 H   0  0  0  0  0  0  0  0  0  0  0  0
   12.2562  -12.2795    0.2769 H   0  0  0  0  0  0  0  0  0  0  0  0
  1  2  1  0  0  0  0
  2  3  1  0  0  0  0
  3  4  1  0  0  0  0
  4  5  1  0  0  0  0
  2  6  1  0  0  0  0
  3  7  1  0  0  0  0
  4  8  1  0  0  0  0
  9  2  1  0  0  0  0
 10  4  1  0  0  0  0
 11  1  1  0  0  0  0
 12  1  1  0  0  0  0
 13  1  1  0  0  0  0
 14  3  1  0  0  0  0
 15  5  1  0  0  0  0
 16  5  1  0  0  0  0
 17  5  1  0  0  0  0
M  END
