c:/jmol-dev/bobtest/cip/RS/(2R,3r,4R,5s,6R)-2,6-dichloro-3,5-bis[(1S)-1-chloroethyl]heptan-4-ol_2d.sdf
__Jmol-14_05251714593D 1   1.00000     0.00000     0
Jmol version 14.17.1  2017-05-22 05:59 EXTRACT: ({1:5 8})
  6  5  0  0  0  0              1 V2000
  -5.47419   2.64601  -0.92026 C   0  0  0  0  0  0
  -4.19144   1.68964  -0.93810 C   0  0  0  0  0  0
  -2.94158   2.22948  -0.12253 C   0  0  0  0  0  0
  -1.49185   2.05786  -0.78017 C   0  0  0  0  0  0
  -0.53720   3.20052  -0.28867 C   0  0  0  0  0  0
  -4.70079   0.21527  -0.69248 C   0  0  0  0  0  0
  1  2  1  0  0  0
  2  3  1  0  0  0
  3  4  1  0  0  0
  4  5  1  0  0  0
  2  6  1  0  0  0
M  END
$$$$
