c:/jmol-dev/bobtest/test7sb.mol
__Jmol-14_04211718093D 1   1.00000     0.00000     0
Jmol version 14.14.1  2017-04-17 21:08 EXTRACT: ({0:4 9:12 21 27:34})
 18 20  0  0  0  0              1 V2000
   0.72547  -3.39245   1.55043 C   0  0  0  0  0  0
   1.86874  -2.34992   1.43192 C   0  0  0  0  0  0
   2.01636  -1.73115   0.02398 C   0  0  0  0  0  0
   3.22856  -2.85942   2.01422 C   0  0  0  0  0  0
   4.45853  -2.85962   1.04345 C   0  0  0  0  0  0
   3.39072  -4.42427   2.16416 C   0  0  0  0  0  0
   3.92398  -4.48859   0.40871 S   0  0  0  0  0  0
   0.49776  -4.11029   0.33523 O   0  0  0  0  0  0
   3.48172  -2.10928   3.22150 O   0  0  0  0  0  0
   1.32706  -4.54066   0.06752 H   0  0  0  0  0  0
   1.42838  -1.21591   2.30947 O   0  0  0  0  0  0
   3.47246  -1.17405   2.93892 H   0  0  0  0  0  0
   2.11785  -0.49186   2.28965 H   0  0  0  0  0  0
  -0.25975  -3.27121   2.02439 H   0  0  0  0  0  0
   3.79783  -5.15997   2.87339 H   0  0  0  0  0  0
   1.89783  -0.65332  -0.16103 H   0  0  0  0  0  0
   1.50059  -2.14148  -0.85671 H   0  0  0  0  0  0
   5.52252  -2.58417   1.08875 H   0  0  0  0  0  0
  3  2  1  0  0  0
  2  4  1  0  0  0
  2  1  1  0  0  0
  5  4  1  0  0  0
  4  6  1  0  0  0
  5  7  1  0  0  0
  6  7  1  0  0  0
  1  8  1  0  0  0
  4  9  1  0  0  0
  8 10  1  0  0  0
 11  2  1  0  0  0
 12  9  1  0  0  0
 13 11  1  0  0  0
  1  6  1  0  0  0
 14  1  1  0  0  0
 15  6  1  0  0  0
  3  5  1  0  0  0
 16  3  1  0  0  0
 17  3  1  0  0  0
 18  5  1  0  0  0
M  END
