CIP:3P 6P; BB:P-93.4.2;
__Jmol-14_06031709523D 1   1.00000     0.00000     0
Jmol version 14.17.2  2017-05-27 15:31 EXTRACT: ({0:11})
 12 11  0  0  0  0              1 V2000
   2.28239  -1.16728  -0.30254 C   0  0  0  0  0  0
   3.43697  -0.83727  -0.31255 C   0  0  0  0  0  0
   1.04069  -1.52950  -0.27129 C   0  0  0  0  0  0
  -0.12421  -0.40594   0.31864 Cl  0  0  0  0  0  0
   4.58965  -0.51474  -0.29017 C   0  0  0  0  0  0
   5.83822  -0.17560  -0.22820 C   0  0  0  0  0  0
   6.92452  -1.13685   0.06200 C   0  0  0  0  0  0
   6.14026   0.86019  -0.32397 H   0  0  0  0  0  0
   0.67211  -2.54439  -0.39315 H   0  0  0  0  0  0
   8.08864  -0.83786   0.24048 O   0  0  0  0  0  0
   6.50491  -2.41288   0.10760 O   0  0  0  0  0  0
   7.31518  -2.91813   0.30140 H   0  0  0  0  0  0
  1  2  2  0  0  0
  1  3  2  0  0  0
  2  5  2  0  0  0
  3  4  1  0  0  0
  3  9  1  0  0  0
  5  6  2  0  0  0
  6  7  1  0  0  0
  6  8  1  0  0  0
  7 10  2  0  0  0
  7 11  1  0  0  0
 11 12  1  0  0  0
M  END
