CIP:1r 3R 7S 10R 12R 17S 21S 25S 28S 30R 32S 34S 39R 43R 46r 48S 52R 56R 60S; Rule 4a/4b extensive branch test 4
__Jmol-14_05311708323D 1   1.00000     0.00000     0
Jmol version 14.17.2  2017-05-27 15:31 EXTRACT: ({0:95})
 96 95  0  0  0  0              1 V2000
  -6.18230   0.64735   2.38343 C   0  0  0  0  0  0
  -5.80456   0.59984   3.43054 H   0  0  0  0  0  0
  -7.45061   1.58065   2.49862 C   0  0  0  0  0  0
  -8.13955   1.08969   3.22673 H   0  0  0  0  0  0
  -8.43142   1.78568   1.00996 Cl  0  0  0  0  0  0
  -7.18790   2.95714   3.08074 C   0  0  0  0  0  0
  -4.97824   1.15771   1.47639 C   0  0  0  0  0  0
  -4.67829   2.02775   2.10290 H   0  0  0  0  0  0
  -5.50655   1.94891  -0.05501 Cl  0  0  0  0  0  0
  -3.60908   0.32250   1.20876 C   0  0  0  0  0  0
  -3.26536  -0.00634   2.20938 H   0  0  0  0  0  0
  -3.44233  -0.98571   0.19302 C   0  0  0  0  0  0
  -2.34631  -0.97300   0.16202 H   0  0  0  0  0  0
  -4.01091  -0.57883  -1.45774 Cl  0  0  0  0  0  0
  -3.63699  -2.61553   0.40777 C   0  0  0  0  0  0
  -3.61912  -2.81634   1.48549 H   0  0  0  0  0  0
  -4.95113  -3.32935  -0.12864 C   0  0  0  0  0  0
  -5.81920  -2.86301   0.26036 H   0  0  0  0  0  0
  -5.08210  -3.39615  -1.92105 Cl  0  0  0  0  0  0
  -5.19993  -4.76566   0.38225 C   0  0  0  0  0  0
  -6.66519  -0.74484   2.01185 C   0  0  0  0  0  0
  -7.67186  -0.96399   2.43114 H   0  0  0  0  0  0
  -6.85269  -0.78034   0.22611 Cl  0  0  0  0  0  0
  -5.77505  -1.77782   2.72873 C   0  0  0  0  0  0
  -2.55218   1.47608   0.81177 C   0  0  0  0  0  0
  -2.08776   1.00867  -0.07989 H   0  0  0  0  0  0
  -3.27589   3.01180  -0.15265 Br  0  0  0  0  0  0
  -0.36879   0.70606   2.13047 C   0  0  0  0  0  0
  -0.31194  -0.40045   1.28576 O   0  0  0  0  0  0
   1.92508   1.80108   1.36088 C   0  0  0  0  0  0
   1.87697   3.73927   1.18767 Br  0  0  0  0  0  0
   3.29305   1.01171   1.13817 C   0  0  0  0  0  0
   3.55800   0.62231   2.14118 H   0  0  0  0  0  0
   3.09388  -0.33543   0.25554 C   0  0  0  0  0  0
   2.07284  -0.61017   0.55189 H   0  0  0  0  0  0
   2.88431  -0.04052  -1.49275 Cl  0  0  0  0  0  0
   3.82376  -1.73214   0.64285 C   0  0  0  0  0  0
   3.60241  -1.78432   1.72924 H   0  0  0  0  0  0
   3.17459  -3.03261   0.00606 C   0  0  0  0  0  0
   3.69980  -3.92191   0.41638 H   0  0  0  0  0  0
   3.28124  -3.15599  -1.78046 Cl  0  0  0  0  0  0
   1.71820  -3.26017   0.37038 C   0  0  0  0  0  0
   4.39895   2.16297   0.91827 C   0  0  0  0  0  0
   4.25089   2.75120   1.83888 H   0  0  0  0  0  0
   4.06328   3.45642  -0.28294 Cl  0  0  0  0  0  0
   5.90749   1.81279   1.00885 C   0  0  0  0  0  0
   5.92543   0.85375   1.50958 H   0  0  0  0  0  0
   6.71487   2.66085   2.05595 C   0  0  0  0  0  0
   7.77353   2.31749   2.01785 H   0  0  0  0  0  0
   6.68014   4.42196   1.75586 Cl  0  0  0  0  0  0
   6.25414   2.42901   3.51428 C   0  0  0  0  0  0
   5.39490  -1.88239   0.58166 C   0  0  0  0  0  0
   5.86059  -0.95651   0.84725 H   0  0  0  0  0  0
   6.12389  -2.38015  -0.97996 Cl  0  0  0  0  0  0
   5.92845  -2.84220   1.65946 C   0  0  0  0  0  0
   6.64948   1.69187  -0.38288 C   0  0  0  0  0  0
   7.56721   1.09757  -0.20006 H   0  0  0  0  0  0
   7.20952   3.25067  -1.06961 Cl  0  0  0  0  0  0
   5.84259   1.01599  -1.49062 C   0  0  0  0  0  0
  -2.42013  -3.47956  -0.13820 C   0  0  0  0  0  0
  -2.76193  -4.45770  -0.51125 H   0  0  0  0  0  0
  -1.55378  -2.79980  -1.54619 Cl  0  0  0  0  0  0
  -1.45801  -3.89900   0.97386 C   0  0  0  0  0  0
  -6.54434   3.55934   2.40946 H   0  0  0  0  0  0
  -8.17891   3.45742   3.19983 H   0  0  0  0  0  0
  -6.71179   2.87004   4.08227 H   0  0  0  0  0  0
  -5.23158  -4.78871   1.49014 H   0  0  0  0  0  0
  -6.19172  -5.11269   0.01629 H   0  0  0  0  0  0
  -4.46802  -5.51167   0.03620 H   0  0  0  0  0  0
  -5.93963  -1.69943   3.82301 H   0  0  0  0  0  0
  -6.00021  -2.82000   2.45762 H   0  0  0  0  0  0
  -4.71692  -1.55325   2.61885 H   0  0  0  0  0  0
  -0.12594  -0.05950   0.37633 H   0  0  0  0  0  0
   1.06566  -2.48548  -0.08030 H   0  0  0  0  0  0
   1.40535  -4.24470  -0.03736 H   0  0  0  0  0  0
   1.59028  -3.27985   1.47023 H   0  0  0  0  0  0
   6.28079   1.35282   3.77301 H   0  0  0  0  0  0
   6.94039   2.96532   4.20615 H   0  0  0  0  0  0
   5.23436   2.81165   3.71489 H   0  0  0  0  0  0
   5.60097  -3.88701   1.49332 H   0  0  0  0  0  0
   7.04397  -2.83516   1.65032 H   0  0  0  0  0  0
   5.60162  -2.51982   2.66805 H   0  0  0  0  0  0
   4.97953   1.62068  -1.80966 H   0  0  0  0  0  0
   6.44089   0.86224  -2.40682 H   0  0  0  0  0  0
   5.47841   0.04994  -1.15786 H   0  0  0  0  0  0
  -2.01339  -4.43356   1.77451 H   0  0  0  0  0  0
  -0.72912  -4.63447   0.56992 H   0  0  0  0  0  0
  -0.94613  -3.02117   1.41140 H   0  0  0  0  0  0
  -1.42893   1.78185   1.82828 C   0  0  0  0  0  0
  -0.93014   2.70875   1.47434 H   0  0  0  0  0  0
   1.00845   1.27092   2.51281 C   0  0  0  0  0  0
   1.55757   0.54215   3.13864 H   0  0  0  0  0  0
  -1.87676   2.07013   2.80248 H   0  0  0  0  0  0
   0.78925   2.12049   3.20735 H   0  0  0  0  0  0
   1.40969   1.55559   0.41249 H   0  0  0  0  0  0
  -0.46108   0.31037   3.57446 H   0  0  0  0  0  0
  1  2  1  0  0  0
  1  3  1  0  0  0
  3  4  1  0  0  0
  3  5  1  0  0  0
  3  6  1  0  0  0
  7  8  1  0  0  0
  1  7  1  0  0  0
  7  9  1  0  0  0
  7 10  1  0  0  0
 10 11  1  0  0  0
 10 12  1  0  0  0
 12 13  1  0  0  0
 12 14  1  0  0  0
 12 15  1  0  0  0
 15 16  1  0  0  0
 15 17  1  0  0  0
 17 18  1  0  0  0
 17 19  1  0  0  0
 17 20  1  0  0  0
 21 22  1  0  0  0
  1 21  1  0  0  0
 21 23  1  0  0  0
 21 24  1  0  0  0
 25 26  1  0  0  0
 10 25  1  0  0  0
 25 27  1  0  0  0
 28 29  1  0  0  0
 30 31  1  0  0  0
 30 32  1  0  0  0
 32 33  1  0  0  0
 32 34  1  0  0  0
 34 35  1  0  0  0
 34 36  1  0  0  0
 34 37  1  0  0  0
 37 38  1  0  0  0
 37 39  1  0  0  0
 39 40  1  0  0  0
 39 41  1  0  0  0
 39 42  1  0  0  0
 43 44  1  0  0  0
 32 43  1  0  0  0
 43 45  1  0  0  0
 43 46  1  0  0  0
 46 47  1  0  0  0
 46 48  1  0  0  0
 48 49  1  0  0  0
 48 50  1  0  0  0
 48 51  1  0  0  0
 52 53  1  0  0  0
 37 52  1  0  0  0
 52 54  1  0  0  0
 52 55  1  0  0  0
 56 57  1  0  0  0
 46 56  1  0  0  0
 56 58  1  0  0  0
 56 59  1  0  0  0
 60 61  1  0  0  0
 15 60  1  0  0  0
 60 62  1  0  0  0
 60 63  1  0  0  0
  6 64  1  0  0  0
  6 65  1  0  0  0
  6 66  1  0  0  0
 20 67  1  0  0  0
 20 68  1  0  0  0
 20 69  1  0  0  0
 24 70  1  0  0  0
 24 71  1  0  0  0
 24 72  1  0  0  0
 29 73  1  0  0  0
 42 74  1  0  0  0
 42 75  1  0  0  0
 42 76  1  0  0  0
 51 77  1  0  0  0
 51 78  1  0  0  0
 51 79  1  0  0  0
 55 80  1  0  0  0
 55 81  1  0  0  0
 55 82  1  0  0  0
 59 83  1  0  0  0
 59 84  1  0  0  0
 59 85  1  0  0  0
 63 86  1  0  0  0
 63 87  1  0  0  0
 63 88  1  0  0  0
 89 25  1  0  0  0
 89 28  1  0  0  0
 90 89  1  0  0  0
 91 28  1  0  0  0
 91 30  1  0  0  0
 92 91  1  0  0  0
 93 89  1  0  0  0
 94 91  1  0  0  0
 95 30  1  0  0  0
 96 28  1  0  0  0
M  END
