CIP:2M 3M; BB:P-93.4.2;
__Jmol-14_06031709523D 1   1.00000     0.00000     0
Jmol version 14.17.2  2017-05-27 15:31 EXTRACT: ({0:6})
  7  6  0  0  0  0              1 V2000
  -1.94624  -0.26613  -1.24167 C   0  0  0  0  0  0
  -3.23450  -0.11718  -1.18911 C   0  0  0  0  0  0
  -0.66045  -0.42942  -1.28984 C   0  0  0  0  0  0
  -0.15005  -1.28629  -1.71568 H   0  0  0  0  0  0
   0.32233   0.56905  -0.29084 Cl  0  0  0  0  0  0
  -3.81928   0.61031  -1.74105 H   0  0  0  0  0  0
  -4.15014  -1.28459  -0.31887 Cl  0  0  0  0  0  0
  1  2  2  0  0  0
  1  3  2  0  0  0
  2  6  1  0  0  0
  2  7  1  0  0  0
  3  4  1  0  0  0
  3  5  1  0  0  0
M  END
