CIP:2S 3Z 4Z; P-92.1.4.4 Rule 1a mancude test
__Jmol-14_05311708053D 1   1.00000     0.00000     0
Jmol version 14.17.2  2017-05-27 15:31 EXTRACT: ({0:20})
 21 21  0  0  0  0              1 V2000
  -0.46106   2.29671   0.79191 O   0  0  0  0  0  0
  -0.80556   1.07876  -0.06774 C   0  0  0  0  0  0
  -2.11406   0.44896   0.41395 C   0  0  0  0  0  0
  -3.21909   1.50716   0.41575 N   0  0  0  0  0  0
   0.30903   0.07093   0.04663 C   0  0  0  0  0  0
   1.07267   0.06302   1.12148 N   0  0  0  0  0  0
   2.05929  -0.80028   1.26486 C   0  0  0  0  0  0
   2.32913  -1.73481   0.28335 C   0  0  0  0  0  0
   1.54720  -1.75709  -0.86171 C   0  0  0  0  0  0
   0.51544  -0.83812  -0.97405 C   0  0  0  0  0  0
  -0.89869   1.38431  -1.10992 H   0  0  0  0  0  0
   2.66366  -0.77632   2.15970 H   0  0  0  0  0  0
   3.13899  -2.43859   0.40635 H   0  0  0  0  0  0
   1.73518  -2.47591  -1.64552 H   0  0  0  0  0  0
  -0.11372  -0.82695  -1.85181 H   0  0  0  0  0  0
  -2.24075  -0.60208   0.71275 H   0  0  0  0  0  0
  -2.91414   2.91074  -0.01663 C   0  0  0  0  0  0
  -0.37561   2.01649   1.74804 H   0  0  0  0  0  0
  -2.55418   2.90424  -1.05605 H   0  0  0  0  0  0
  -2.13837   3.33556   0.63736 H   0  0  0  0  0  0
  -3.82622   3.52184   0.05167 H   0  0  0  0  0  0
  1  2  1  0  0  0
  2  3  1  0  0  0
  3  4  2  0  0  0
  2  5  1  0  0  0
  5  6  2  0  0  0
  6  7  1  0  0  0
  7  8  2  0  0  0
  8  9  1  0  0  0
  9 10  2  0  0  0
  5 10  1  0  0  0
  2 11  1  0  0  0
  7 12  1  0  0  0
  8 13  1  0  0  0
  9 14  1  0  0  0
 10 15  1  0  0  0
 16  3  1  0  0  0
 17  4  1  0  0  0
 18  1  1  0  0  0
 19 17  1  0  0  0
 20 17  1  0  0  0
 21 17  1  0  0  0
M  END
