CIP:3Z 4S 5Z; BB:P-93.5.1.4.2.2;
__Jmol-14_06031709573D 1   1.00000     0.00000     0
Jmol version 14.17.2  2017-05-27 15:31 EXTRACT: ({0:21})
 22 22  0  0  0  0              1 V2000
  -3.93270  -1.28558   1.31404 C   0  0  0  0  0  0
  -4.43264   0.83905   1.77865 C   0  0  0  0  0  0
  -5.10758  -0.50995   1.83435 C   0  0  0  0  0  0
  -3.22861   0.08505   1.16254 C   0  0  0  0  0  0
  -6.32681  -0.92177   2.20490 C   0  0  0  0  0  0
  -1.88688   0.13418   1.88672 C   0  0  0  0  0  0
  -0.86286  -0.72519   1.12968 C   0  0  0  0  0  0
   0.36323   0.06154   0.71273 C   0  0  0  0  0  0
  -7.71381   0.19568   2.72314 Br  0  0  0  0  0  0
  -4.08212  -1.80991   0.36308 H   0  0  0  0  0  0
  -3.47438  -1.98119   2.02014 H   0  0  0  0  0  0
  -4.88907   1.57748   1.10613 H   0  0  0  0  0  0
  -4.23875   1.32020   2.74031 H   0  0  0  0  0  0
  -3.10302   0.37738   0.11582 H   0  0  0  0  0  0
  -6.58898  -1.97251   2.19232 H   0  0  0  0  0  0
  -1.98689  -0.22894   2.91414 H   0  0  0  0  0  0
  -1.54717   1.17515   1.96594 H   0  0  0  0  0  0
  -1.30239  -1.17140   0.22810 H   0  0  0  0  0  0
  -0.55143  -1.56485   1.76186 H   0  0  0  0  0  0
   0.92301   0.40616   1.58952 H   0  0  0  0  0  0
   0.09383   0.93066   0.11068 H   0  0  0  0  0  0
   1.03199  -0.56925   0.11562 H   0  0  0  0  0  0
  1  3  1  0  0  0
  1  4  1  0  0  0
  2  4  1  0  0  0
  2  3  1  0  0  0
  3  5  2  0  0  0
  4  6  1  0  0  0
  5  9  1  0  0  0
  6  7  1  0  0  0
  7  8  1  0  0  0
  1 10  1  0  0  0
  1 11  1  0  0  0
  2 12  1  0  0  0
  2 13  1  0  0  0
  4 14  1  0  0  0
  5 15  1  0  0  0
  6 16  1  0  0  0
  6 17  1  0  0  0
  7 18  1  0  0  0
  7 19  1  0  0  0
  8 20  1  0  0  0
  8 21  1  0  0  0
  8 22  1  0  0  0
M  END
