CIP:9r 10r 19r 28r; BB:P-93.5.5.2;
__Jmol-14_06031710083D 1   1.00000     0.00000     0
Jmol version 14.17.2  2017-05-27 15:31 EXTRACT: ({0:167})
168172  0  0  0  0              1 V2000
  11.16901   9.78496   3.62084 C   0  0  0  0  0  0
  12.54025   9.35257   4.49577 C   0  0  0  0  0  0
  10.44550   8.86374   3.38579 C   0  0  0  0  0  0
  12.54285   7.99525   4.99714 C   0  0  0  0  0  0
  10.22310   7.65755   3.89939 C   0  0  0  0  0  0
  11.47465   7.06960   4.72465 C   0  0  0  0  0  0
  10.63632  11.18350   2.94923 O   0  0  0  0  0  0
   8.74498   7.14197   3.48385 O   0  0  0  0  0  0
  11.38441   5.54914   5.20774 C   0  0  0  0  0  0
  13.22088  10.52154   5.29860 C   0  0  0  0  0  0
  15.13669  11.60467   6.55380 C   0  0  0  0  0  0
  14.72318  10.62248   5.60366 C   0  0  0  0  0  0
  16.43541  11.82917   6.88745 C   0  0  0  0  0  0
  15.74385   9.77205   5.07996 C   0  0  0  0  0  0
  17.38028  10.95321   6.42483 C   0  0  0  0  0  0
  17.08738   9.87637   5.53790 C   0  0  0  0  0  0
  14.27207  12.38651   7.30030 O   0  0  0  0  0  0
  18.62849  11.11357   6.99082 O   0  0  0  0  0  0
  18.56171   8.89689   5.55167 C   0  0  0  0  0  0
  18.91537   6.96990   6.76029 C   0  0  0  0  0  0
  18.07333   7.40123   5.70024 C   0  0  0  0  0  0
  18.77916   5.76077   7.37141 C   0  0  0  0  0  0
  17.18622   6.42900   5.14347 C   0  0  0  0  0  0
  17.83843   4.88007   6.89023 C   0  0  0  0  0  0
  17.08409   5.12727   5.71912 C   0  0  0  0  0  0
  19.95140   7.73279   7.27640 O   0  0  0  0  0  0
  17.72231   3.67932   7.56206 O   0  0  0  0  0  0
  16.43213   3.89515   5.05111 C   0  0  0  0  0  0
  12.27046   3.09944   4.98542 C   0  0  0  0  0  0
  12.56076   4.50693   4.97799 C   0  0  0  0  0  0
  13.16088   2.12499   4.61127 C   0  0  0  0  0  0
  13.95624   4.80581   4.86729 C   0  0  0  0  0  0
  14.47552   2.45795   4.48379 C   0  0  0  0  0  0
  14.94104   3.77745   4.69780 C   0  0  0  0  0  0
  11.08083   2.58741   5.46440 O   0  0  0  0  0  0
  15.36431   1.40560   4.31780 O   0  0  0  0  0  0
  12.62462  11.95945   5.01250 C   0  0  0  0  0  0
  11.26379  12.11667   5.70392 C   0  0  0  0  0  0
  10.49954  13.34764   5.25039 C   0  0  0  0  0  0
   9.03908  13.25208   5.68809 C   0  0  0  0  0  0
   8.28183  14.51480   5.31097 C   0  0  0  0  0  0
   6.78376  14.39321   5.57132 C   0  0  0  0  0  0
   6.10079  15.71991   5.25718 C   0  0  0  0  0  0
   4.59025  15.65706   5.42350 C   0  0  0  0  0  0
   3.95976  17.00728   5.12551 C   0  0  0  0  0  0
  19.36834   9.15877   4.23016 C   0  0  0  0  0  0
  20.25740  10.28400   4.81823 C   0  0  0  0  0  0
  21.66120  10.58811   4.30732 C   0  0  0  0  0  0
  21.79061  12.08709   3.99333 C   0  0  0  0  0  0
  22.84220  12.79917   4.83555 C   0  0  0  0  0  0
  22.90187  14.27750   4.45361 C   0  0  0  0  0  0
  24.07073  14.98882   5.11928 C   0  0  0  0  0  0
  24.30850  16.36788   4.50204 C   0  0  0  0  0  0
  25.61269  16.96114   5.00381 C   0  0  0  0  0  0
  17.48518   3.19740   4.11051 C   0  0  0  0  0  0
  18.45862   2.32079   4.94504 C   0  0  0  0  0  0
  19.14533   1.15107   4.23136 C   0  0  0  0  0  0
  20.67499   1.17653   4.41122 C   0  0  0  0  0  0
  21.24637  -0.18676   4.80329 C   0  0  0  0  0  0
  22.77230  -0.14891   4.92249 C   0  0  0  0  0  0
  23.33288  -1.51825   5.31003 C   0  0  0  0  0  0
  24.86086  -1.55401   5.23588 C   0  0  0  0  0  0
  25.38921  -2.95543   5.50353 C   0  0  0  0  0  0
  10.05548   4.87023   4.63908 C   0  0  0  0  0  0
   9.01462   4.60255   5.74693 C   0  0  0  0  0  0
   7.85299   3.73583   5.24756 C   0  0  0  0  0  0
   7.75711   2.40047   5.99154 C   0  0  0  0  0  0
   6.67200   1.51936   5.38579 C   0  0  0  0  0  0
   6.51340   0.19040   6.12663 C   0  0  0  0  0  0
   5.30560  -0.56148   5.56680 C   0  0  0  0  0  0
   5.07467  -1.90160   6.25519 C   0  0  0  0  0  0
   3.79675  -2.55214   5.74818 C   0  0  0  0  0  0
   9.59970   9.21473   2.81063 H   0  0  0  0  0  0
  13.30647   7.70682   5.70742 H   0  0  0  0  0  0
   9.72341  11.46228   2.76655 H   0  0  0  0  0  0
   8.15852   7.43207   2.76988 H   0  0  0  0  0  0
  11.29308   5.62151   6.29513 H   0  0  0  0  0  0
  12.84216  10.28059   6.29689 H   0  0  0  0  0  0
  16.68343  12.60114   7.60641 H   0  0  0  0  0  0
  15.47583   8.98735   4.37577 H   0  0  0  0  0  0
  13.54731  11.81554   7.59571 H   0  0  0  0  0  0
  18.79919  12.07321   7.05835 H   0  0  0  0  0  0
  19.41073   5.51518   8.21487 H   0  0  0  0  0  0
  16.61721   6.67004   4.25008 H   0  0  0  0  0  0
  19.54684   8.51836   7.69330 H   0  0  0  0  0  0
  18.56950   3.50769   8.01261 H   0  0  0  0  0  0
  12.85021   1.08568   4.55852 H   0  0  0  0  0  0
  14.29575   5.82622   5.01218 H   0  0  0  0  0  0
  10.84947   1.79434   4.94531 H   0  0  0  0  0  0
  14.90234   0.56246   4.44062 H   0  0  0  0  0  0
  12.58744  12.19713   3.95042 H   0  0  0  0  0  0
  13.25025  12.78613   5.35571 H   0  0  0  0  0  0
  11.40878  12.16980   6.79057 H   0  0  0  0  0  0
  10.64410  11.23058   5.53400 H   0  0  0  0  0  0
  10.54270  13.43436   4.16138 H   0  0  0  0  0  0
  10.97153  14.25010   5.66399 H   0  0  0  0  0  0
   8.97644  13.09487   6.77459 H   0  0  0  0  0  0
   8.57188  12.38335   5.21417 H   0  0  0  0  0  0
   8.44417  14.73330   4.24765 H   0  0  0  0  0  0
   8.69092  15.35943   5.87072 H   0  0  0  0  0  0
   6.60351  14.11879   6.61473 H   0  0  0  0  0  0
   6.35900  13.59261   4.94900 H   0  0  0  0  0  0
   6.33889  16.01964   4.22852 H   0  0  0  0  0  0
   6.51104  16.50096   5.91212 H   0  0  0  0  0  0
   4.33724  15.35760   6.44892 H   0  0  0  0  0  0
   4.16940  14.90269   4.75523 H   0  0  0  0  0  0
   4.17841  17.32548   4.09895 H   0  0  0  0  0  0
   4.33646  17.77537   5.80560 H   0  0  0  0  0  0
   2.87556  16.95651   5.23956 H   0  0  0  0  0  0
  18.96487   9.45615   3.25866 H   0  0  0  0  0  0
  19.98696   8.26646   4.06272 H   0  0  0  0  0  0
  20.43251  10.08052   5.87434 H   0  0  0  0  0  0
  19.64537  11.18835   4.77632 H   0  0  0  0  0  0
  21.96170   9.96653   3.46286 H   0  0  0  0  0  0
  22.37196  10.32305   5.10179 H   0  0  0  0  0  0
  20.84302  12.61771   4.14995 H   0  0  0  0  0  0
  22.02362  12.20292   2.92968 H   0  0  0  0  0  0
  23.81817  12.32505   4.67583 H   0  0  0  0  0  0
  22.60764  12.70257   5.90393 H   0  0  0  0  0  0
  21.96297  14.77496   4.71521 H   0  0  0  0  0  0
  23.00289  14.35623   3.36283 H   0  0  0  0  0  0
  24.97356  14.38365   5.00904 H   0  0  0  0  0  0
  23.88278  15.08478   6.19706 H   0  0  0  0  0  0
  23.47786  17.03639   4.74216 H   0  0  0  0  0  0
  24.35524  16.28991   3.41232 H   0  0  0  0  0  0
  26.46200  16.31824   4.74358 H   0  0  0  0  0  0
  25.59813  17.08383   6.08737 H   0  0  0  0  0  0
  25.78525  17.94237   4.54985 H   0  0  0  0  0  0
  18.06557   3.94224   3.56024 H   0  0  0  0  0  0
  17.01803   2.59730   3.32495 H   0  0  0  0  0  0
  17.92038   1.86466   5.78415 H   0  0  0  0  0  0
  19.20270   2.98016   5.39471 H   0  0  0  0  0  0
  18.89258   1.13094   3.16919 H   0  0  0  0  0  0
  18.74147   0.22313   4.65098 H   0  0  0  0  0  0
  20.98057   1.90165   5.16647 H   0  0  0  0  0  0
  21.12920   1.50949   3.47020 H   0  0  0  0  0  0
  20.95580  -0.93169   4.05994 H   0  0  0  0  0  0
  20.81246  -0.50519   5.75990 H   0  0  0  0  0  0
  23.07471   0.59716   5.66899 H   0  0  0  0  0  0
  23.19978   0.16761   3.96690 H   0  0  0  0  0  0
  22.92250  -2.28060   4.64254 H   0  0  0  0  0  0
  23.00656  -1.77536   6.32206 H   0  0  0  0  0  0
  25.28894  -0.85535   5.95928 H   0  0  0  0  0  0
  25.19353  -1.23640   4.24505 H   0  0  0  0  0  0
  24.99701  -3.67281   4.77900 H   0  0  0  0  0  0
  25.11231  -3.29576   6.50832 H   0  0  0  0  0  0
  26.48337  -2.96845   5.43425 H   0  0  0  0  0  0
  10.23856   3.95374   4.08016 H   0  0  0  0  0  0
   9.59835   5.38708   3.79722 H   0  0  0  0  0  0
   8.61723   5.55027   6.11514 H   0  0  0  0  0  0
   9.49125   4.13606   6.61835 H   0  0  0  0  0  0
   7.93804   3.55281   4.16866 H   0  0  0  0  0  0
   6.91886   4.28486   5.38444 H   0  0  0  0  0  0
   7.53790   2.58793   7.05203 H   0  0  0  0  0  0
   8.70823   1.86839   5.95362 H   0  0  0  0  0  0
   6.90433   1.32285   4.33052 H   0  0  0  0  0  0
   5.72438   2.06197   5.40104 H   0  0  0  0  0  0
   6.37327   0.37207   7.19522 H   0  0  0  0  0  0
   7.41989  -0.41126   6.01513 H   0  0  0  0  0  0
   5.43686  -0.72157   4.49452 H   0  0  0  0  0  0
   4.40968   0.06215   5.68269 H   0  0  0  0  0  0
   5.00325  -1.76528   7.33593 H   0  0  0  0  0  0
   5.92500  -2.57026   6.06818 H   0  0  0  0  0  0
   3.84485  -2.72790   4.66680 H   0  0  0  0  0  0
   2.92892  -1.91887   5.94943 H   0  0  0  0  0  0
   3.63484  -3.51240   6.23987 H   0  0  0  0  0  0
  19.09485   9.17810   6.43139 H   0  0  0  0  0  0
  16.35584   3.21779   5.90450 H   0  0  0  0  0  0
  1  2  1  0  0  0
  1  3  2  0  0  0
  1  7  1  0  0  0
  2  4  2  0  0  0
  2 10  1  0  0  0
  3  5  1  0  0  0
  4  6  1  0  0  0
  5  6  2  0  0  0
  5  8  1  0  0  0
  6  9  1  0  0  0
  9 30  1  0  0  0
  9 64  1  0  0  0
 10 12  1  0  0  0
 10 37  1  0  0  0
 11 12  1  0  0  0
 11 13  2  0  0  0
 11 17  1  0  0  0
 12 14  2  0  0  0
 13 15  1  0  0  0
 14 16  1  0  0  0
 15 16  2  0  0  0
 15 18  1  0  0  0
 16 19  1  0  0  0
 19 21  1  0  0  0
 19 46  1  0  0  0
 20 21  1  0  0  0
 20 22  2  0  0  0
 20 26  1  0  0  0
 21 23  2  0  0  0
 22 24  1  0  0  0
 23 25  1  0  0  0
 24 25  2  0  0  0
 24 27  1  0  0  0
 25 28  1  0  0  0
 28 34  1  0  0  0
 28 55  1  0  0  0
 29 30  1  0  0  0
 29 31  2  0  0  0
 29 35  1  0  0  0
 30 32  2  0  0  0
 31 33  1  0  0  0
 32 34  1  0  0  0
 33 34  2  0  0  0
 33 36  1  0  0  0
 37 38  1  0  0  0
 38 39  1  0  0  0
 39 40  1  0  0  0
 40 41  1  0  0  0
 41 42  1  0  0  0
 42 43  1  0  0  0
 43 44  1  0  0  0
 44 45  1  0  0  0
 46 47  1  0  0  0
 47 48  1  0  0  0
 48 49  1  0  0  0
 49 50  1  0  0  0
 50 51  1  0  0  0
 51 52  1  0  0  0
 52 53  1  0  0  0
 53 54  1  0  0  0
 55 56  1  0  0  0
 56 57  1  0  0  0
 57 58  1  0  0  0
 58 59  1  0  0  0
 59 60  1  0  0  0
 60 61  1  0  0  0
 61 62  1  0  0  0
 62 63  1  0  0  0
 64 65  1  0  0  0
 65 66  1  0  0  0
 66 67  1  0  0  0
 67 68  1  0  0  0
 68 69  1  0  0  0
 69 70  1  0  0  0
 70 71  1  0  0  0
 71 72  1  0  0  0
  3 73  1  0  0  0
  4 74  1  0  0  0
  7 75  1  0  0  0
  8 76  1  0  0  0
  9 77  1  0  0  0
 10 78  1  0  0  0
 13 79  1  0  0  0
 14 80  1  0  0  0
 17 81  1  0  0  0
 18 82  1  0  0  0
 22 83  1  0  0  0
 23 84  1  0  0  0
 26 85  1  0  0  0
 27 86  1  0  0  0
 31 87  1  0  0  0
 32 88  1  0  0  0
 35 89  1  0  0  0
 36 90  1  0  0  0
 37 91  1  0  0  0
 37 92  1  0  0  0
 38 93  1  0  0  0
 38 94  1  0  0  0
 39 95  1  0  0  0
 39 96  1  0  0  0
 40 97  1  0  0  0
 40 98  1  0  0  0
 41 99  1  0  0  0
 41100  1  0  0  0
 42101  1  0  0  0
 42102  1  0  0  0
 43103  1  0  0  0
 43104  1  0  0  0
 44105  1  0  0  0
 44106  1  0  0  0
 45107  1  0  0  0
 45108  1  0  0  0
 45109  1  0  0  0
 46110  1  0  0  0
 46111  1  0  0  0
 47112  1  0  0  0
 47113  1  0  0  0
 48114  1  0  0  0
 48115  1  0  0  0
 49116  1  0  0  0
 49117  1  0  0  0
 50118  1  0  0  0
 50119  1  0  0  0
 51120  1  0  0  0
 51121  1  0  0  0
 52122  1  0  0  0
 52123  1  0  0  0
 53124  1  0  0  0
 53125  1  0  0  0
 54126  1  0  0  0
 54127  1  0  0  0
 54128  1  0  0  0
 55129  1  0  0  0
 55130  1  0  0  0
 56131  1  0  0  0
 56132  1  0  0  0
 57133  1  0  0  0
 57134  1  0  0  0
 58135  1  0  0  0
 58136  1  0  0  0
 59137  1  0  0  0
 59138  1  0  0  0
 60139  1  0  0  0
 60140  1  0  0  0
 61141  1  0  0  0
 61142  1  0  0  0
 62143  1  0  0  0
 62144  1  0  0  0
 63145  1  0  0  0
 63146  1  0  0  0
 63147  1  0  0  0
 64148  1  0  0  0
 64149  1  0  0  0
 65150  1  0  0  0
 65151  1  0  0  0
 66152  1  0  0  0
 66153  1  0  0  0
 67154  1  0  0  0
 67155  1  0  0  0
 68156  1  0  0  0
 68157  1  0  0  0
 69158  1  0  0  0
 69159  1  0  0  0
 70160  1  0  0  0
 70161  1  0  0  0
 71162  1  0  0  0
 71163  1  0  0  0
 72164  1  0  0  0
 72165  1  0  0  0
 72166  1  0  0  0
167 19  1  0  0  0
168 28  1  0  0  0
M  END
