CIP:1r 3R 7S 10R 12R 17S 21S 25R 28R 30S 32S 34S 39R 43R 46r 48S 52R 56R 60S; Rule 4a/4b extensive branch test
__Jmol-14_05311708233D 1   1.00000     0.00000     0
Jmol version 14.17.2  2017-05-27 15:31 EXTRACT: ({0:95})
 96 95  0  0  0  0              1 V2000
  -5.95109   2.38849   1.78876 C   0  0  0  0  0  0
  -5.56399   2.64965   2.80034 H   0  0  0  0  0  0
  -7.05303   3.48882   1.52818 C   0  0  0  0  0  0
  -7.79573   3.39502   2.35605 H   0  0  0  0  0  0
  -8.01969   3.31370   0.02656 Cl  0  0  0  0  0  0
  -6.56375   4.92301   1.60668 C   0  0  0  0  0  0
  -4.70051   2.35793   0.80489 C   0  0  0  0  0  0
  -4.25372   3.33346   1.10169 H   0  0  0  0  0  0
  -5.12860   2.63958  -0.92356 Cl  0  0  0  0  0  0
  -3.48666   1.27966   0.89223 C   0  0  0  0  0  0
  -3.17864   1.26981   1.95640 H   0  0  0  0  0  0
  -3.55018  -0.30889   0.39897 C   0  0  0  0  0  0
  -2.46685  -0.47841   0.40476 H   0  0  0  0  0  0
  -4.08132  -0.41781  -1.30974 Cl  0  0  0  0  0  0
  -3.99584  -1.71103   1.15763 C   0  0  0  0  0  0
  -3.98762  -1.52501   2.23810 H   0  0  0  0  0  0
  -5.41723  -2.35303   0.85488 C   0  0  0  0  0  0
  -6.19229  -1.65162   1.02699 H   0  0  0  0  0  0
  -5.59428  -3.01725  -0.80693 Cl  0  0  0  0  0  0
  -5.87957  -3.46491   1.82222 C   0  0  0  0  0  0
  -6.65584   1.04718   1.90519 C   0  0  0  0  0  0
  -7.67558   1.14684   2.33808 H   0  0  0  0  0  0
  -6.88360   0.42303   0.23676 Cl  0  0  0  0  0  0
  -5.92573   0.20266   2.96676 C   0  0  0  0  0  0
  -2.26898   2.04397   0.15850 C   0  0  0  0  0  0
  -2.61087   3.04387  -0.17686 H   0  0  0  0  0  0
  -1.69914   1.45091  -1.61228 Br  0  0  0  0  0  0
  -0.20811   1.45052   1.73948 C   0  0  0  0  0  0
  -0.34465   0.12501   1.33279 O   0  0  0  0  0  0
   2.21368   1.83880   0.72105 C   0  0  0  0  0  0
   1.45846   1.98727  -1.06678 Br  0  0  0  0  0  0
   3.43454   0.81871   0.83458 C   0  0  0  0  0  0
   3.65528   0.76595   1.91915 H   0  0  0  0  0  0
   3.00641  -0.70265   0.46649 C   0  0  0  0  0  0
   1.96112  -0.69489   0.80285 H   0  0  0  0  0  0
   2.80993  -1.00485  -1.28203 Cl  0  0  0  0  0  0
   3.51390  -1.97310   1.33930 C   0  0  0  0  0  0
   3.30967  -1.60942   2.36786 H   0  0  0  0  0  0
   2.65402  -3.29589   1.16940 C   0  0  0  0  0  0
   3.04025  -4.05732   1.88077 H   0  0  0  0  0  0
   2.70271  -4.04734  -0.45880 Cl  0  0  0  0  0  0
   1.18785  -3.15315   1.53756 C   0  0  0  0  0  0
   4.70391   1.63479   0.26942 C   0  0  0  0  0  0
   4.66995   2.52163   0.92345 H   0  0  0  0  0  0
   4.55234   2.46563  -1.31651 Cl  0  0  0  0  0  0
   6.13956   1.10780   0.52960 C   0  0  0  0  0  0
   6.01587   0.39221   1.33170 H   0  0  0  0  0  0
   7.09253   2.13022   1.24645 C   0  0  0  0  0  0
   8.08247   1.63480   1.36753 H   0  0  0  0  0  0
   7.33075   3.65978   0.35412 Cl  0  0  0  0  0  0
   6.63127   2.49425   2.67731 C   0  0  0  0  0  0
   5.03983  -2.37770   1.39022 C   0  0  0  0  0  0
   5.65160  -1.50174   1.33529 H   0  0  0  0  0  0
   5.64830  -3.49400   0.12477 Cl  0  0  0  0  0  0
   5.43699  -2.97370   2.75203 C   0  0  0  0  0  0
   6.82401   0.39697  -0.70661 C   0  0  0  0  0  0
   7.63970  -0.23179  -0.29659 H   0  0  0  0  0  0
   7.60934   1.51260  -1.87005 Cl  0  0  0  0  0  0
   5.89752  -0.48738  -1.53991 C   0  0  0  0  0  0
  -2.94267  -2.88898   0.98857 C   0  0  0  0  0  0
  -3.44264  -3.86988   0.96530 H   0  0  0  0  0  0
  -2.00906  -2.88443  -0.53566 Cl  0  0  0  0  0  0
  -2.03621  -3.04007   2.21073 C   0  0  0  0  0  0
  -5.84706   5.14648   0.79194 H   0  0  0  0  0  0
  -7.46040   5.58115   1.50961 H   0  0  0  0  0  0
  -6.08675   5.11642   2.59275 H   0  0  0  0  0  0
  -5.89148  -3.09633   2.86764 H   0  0  0  0  0  0
  -6.92116  -3.75868   1.56380 H   0  0  0  0  0  0
  -5.28230  -4.38883   1.78233 H   0  0  0  0  0  0
  -6.05310   0.68098   3.95953 H   0  0  0  0  0  0
  -6.31858  -0.82020   3.06539 H   0  0  0  0  0  0
  -4.84792   0.20752   2.82389 H   0  0  0  0  0  0
  -0.12593   0.09534   0.36888 H   0  0  0  0  0  0
   0.65694  -2.49192   0.82348 H   0  0  0  0  0  0
   0.71473  -4.15653   1.48502 H   0  0  0  0  0  0
   1.08128  -2.76928   2.57082 H   0  0  0  0  0  0
   6.49261   1.58490   3.29343 H   0  0  0  0  0  0
   7.40795   3.12381   3.16477 H   0  0  0  0  0  0
   5.68930   3.07641   2.69636 H   0  0  0  0  0  0
   4.94490  -3.94659   2.94632 H   0  0  0  0  0  0
   6.53912  -3.14390   2.78097 H   0  0  0  0  0  0
   5.18631  -2.27431   3.57418 H   0  0  0  0  0  0
   5.13462   0.09515  -2.07926 H   0  0  0  0  0  0
   6.44480  -1.04099  -2.32413 H   0  0  0  0  0  0
   5.39202  -1.20838  -0.90652 H   0  0  0  0  0  0
  -2.65246  -3.16976   3.12648 H   0  0  0  0  0  0
  -1.44145  -3.97388   2.11282 H   0  0  0  0  0  0
  -1.38288  -2.15596   2.33528 H   0  0  0  0  0  0
  -1.09066   2.50519   1.04575 C   0  0  0  0  0  0
  -0.45890   3.16168   0.41088 H   0  0  0  0  0  0
   1.24880   1.89145   1.95164 C   0  0  0  0  0  0
   1.68852   1.34962   2.81031 H   0  0  0  0  0  0
  -1.46690   3.17993   1.84314 H   0  0  0  0  0  0
   1.18129   2.95244   2.30071 H   0  0  0  0  0  0
   2.63698   2.85944   0.78737 H   0  0  0  0  0  0
  -0.33188   1.60076   3.22683 H   0  0  0  0  0  0
  1  2  1  0  0  0
  1  3  1  0  0  0
  3  4  1  0  0  0
  3  5  1  0  0  0
  3  6  1  0  0  0
  7  8  1  0  0  0
  1  7  1  0  0  0
  7  9  1  0  0  0
  7 10  1  0  0  0
 10 11  1  0  0  0
 10 12  1  0  0  0
 12 13  1  0  0  0
 12 14  1  0  0  0
 12 15  1  0  0  0
 15 16  1  0  0  0
 15 17  1  0  0  0
 17 18  1  0  0  0
 17 19  1  0  0  0
 17 20  1  0  0  0
 21 22  1  0  0  0
  1 21  1  0  0  0
 21 23  1  0  0  0
 21 24  1  0  0  0
 25 26  1  0  0  0
 10 25  1  0  0  0
 25 27  1  0  0  0
 28 29  1  0  0  0
 30 31  1  0  0  0
 30 32  1  0  0  0
 32 33  1  0  0  0
 32 34  1  0  0  0
 34 35  1  0  0  0
 34 36  1  0  0  0
 34 37  1  0  0  0
 37 38  1  0  0  0
 37 39  1  0  0  0
 39 40  1  0  0  0
 39 41  1  0  0  0
 39 42  1  0  0  0
 43 44  1  0  0  0
 32 43  1  0  0  0
 43 45  1  0  0  0
 43 46  1  0  0  0
 46 47  1  0  0  0
 46 48  1  0  0  0
 48 49  1  0  0  0
 48 50  1  0  0  0
 48 51  1  0  0  0
 52 53  1  0  0  0
 37 52  1  0  0  0
 52 54  1  0  0  0
 52 55  1  0  0  0
 56 57  1  0  0  0
 46 56  1  0  0  0
 56 58  1  0  0  0
 56 59  1  0  0  0
 60 61  1  0  0  0
 15 60  1  0  0  0
 60 62  1  0  0  0
 60 63  1  0  0  0
  6 64  1  0  0  0
  6 65  1  0  0  0
  6 66  1  0  0  0
 20 67  1  0  0  0
 20 68  1  0  0  0
 20 69  1  0  0  0
 24 70  1  0  0  0
 24 71  1  0  0  0
 24 72  1  0  0  0
 29 73  1  0  0  0
 42 74  1  0  0  0
 42 75  1  0  0  0
 42 76  1  0  0  0
 51 77  1  0  0  0
 51 78  1  0  0  0
 51 79  1  0  0  0
 55 80  1  0  0  0
 55 81  1  0  0  0
 55 82  1  0  0  0
 59 83  1  0  0  0
 59 84  1  0  0  0
 59 85  1  0  0  0
 63 86  1  0  0  0
 63 87  1  0  0  0
 63 88  1  0  0  0
 89 25  1  0  0  0
 89 28  1  0  0  0
 90 89  1  0  0  0
 91 28  1  0  0  0
 91 30  1  0  0  0
 92 91  1  0  0  0
 93 89  1  0  0  0
 94 91  1  0  0  0
 95 30  1  0  0  0
 96 28  1  0  0  0
M  END
