CIP:1E 6s 7E 12s; BB:P-93.5.1.4.2.2;
__Jmol-14_06031709583D 1   1.00000     0.00000     0
Jmol version 14.17.2  2017-05-27 15:31 EXTRACT: ({0:43})
 44 45  0  0  0  0              1 V2000
  -4.63539  -0.91874  -0.49697 C   0  0  0  0  0  0
  -3.81781  -2.19284  -0.42575 C   0  0  0  0  0  0
  -3.90725   0.38270  -0.70128 C   0  0  0  0  0  0
  -2.40672  -2.09283  -0.99153 C   0  0  0  0  0  0
  -2.49864   0.39670  -0.20835 C   0  0  0  0  0  0
  -1.65640  -0.78403  -0.69803 C   0  0  0  0  0  0
  -5.98062  -0.89697  -0.40348 C   0  0  0  0  0  0
  -6.68653   0.42959  -0.59275 C   0  0  0  0  0  0
  -6.76746  -2.15429  -0.15362 C   0  0  0  0  0  0
  -8.17743   0.52338  -0.44929 C   0  0  0  0  0  0
  -8.21578  -2.12212  -0.58064 C   0  0  0  0  0  0
  -8.96139  -0.78027  -0.52769 C   0  0  0  0  0  0
  -0.75275  -0.31312  -1.84470 C   0  0  0  0  0  0
   0.47401   0.32779  -1.21668 C   0  0  0  0  0  0
 -10.01446  -0.73584  -1.64238 C   0  0  0  0  0  0
 -11.15887  -1.64656  -1.23258 C   0  0  0  0  0  0
  -4.30828  -2.99742  -0.98967 H   0  0  0  0  0  0
  -3.77587  -2.53920   0.61417 H   0  0  0  0  0  0
  -4.37522   1.20385  -0.15359 H   0  0  0  0  0  0
  -3.95152   0.65430  -1.76343 H   0  0  0  0  0  0
  -2.41777  -2.33646  -2.06105 H   0  0  0  0  0  0
  -1.82704  -2.90666  -0.54114 H   0  0  0  0  0  0
  -2.50231   0.40102   0.88359 H   0  0  0  0  0  0
  -2.07207   1.36073  -0.51355 H   0  0  0  0  0  0
  -1.00363  -1.03240   0.14738 H   0  0  0  0  0  0
  -6.43555   0.80852  -1.58965 H   0  0  0  0  0  0
  -6.30229   1.15930   0.13118 H   0  0  0  0  0  0
  -6.70613  -2.41378   0.90898 H   0  0  0  0  0  0
  -6.32815  -3.00390  -0.68433 H   0  0  0  0  0  0
  -8.54038   1.27208  -1.15608 H   0  0  0  0  0  0
  -8.37811   0.96950   0.53448 H   0  0  0  0  0  0
  -8.75368  -2.82607   0.06556 H   0  0  0  0  0  0
  -8.28145  -2.56598  -1.58138 H   0  0  0  0  0  0
  -9.50305  -0.78825   0.42161 H   0  0  0  0  0  0
  -1.26854   0.40375  -2.49643 H   0  0  0  0  0  0
  -0.43673  -1.14574  -2.48744 H   0  0  0  0  0  0
   1.07505  -0.43875  -0.72365 H   0  0  0  0  0  0
   0.19181   1.05957  -0.44849 H   0  0  0  0  0  0
   1.09627   0.83353  -1.95927 H   0  0  0  0  0  0
  -9.59409  -1.05573  -2.60350 H   0  0  0  0  0  0
 -10.39939   0.27294  -1.79513 H   0  0  0  0  0  0
 -11.52243  -1.35083  -0.24258 H   0  0  0  0  0  0
 -10.84066  -2.68882  -1.17409 H   0  0  0  0  0  0
 -11.98566  -1.57785  -1.94276 H   0  0  0  0  0  0
  1  2  1  0  0  0
  1  3  1  0  0  0
  1  7  2  0  0  0
  2  4  1  0  0  0
  3  5  1  0  0  0
  4  6  1  0  0  0
  5  6  1  0  0  0
  6 13  1  0  0  0
  7  8  1  0  0  0
  7  9  1  0  0  0
  8 10  1  0  0  0
  9 11  1  0  0  0
 10 12  1  0  0  0
 11 12  1  0  0  0
 12 15  1  0  0  0
 13 14  1  0  0  0
 15 16  1  0  0  0
  2 17  1  0  0  0
  2 18  1  0  0  0
  3 19  1  0  0  0
  3 20  1  0  0  0
  4 21  1  0  0  0
  4 22  1  0  0  0
  5 23  1  0  0  0
  5 24  1  0  0  0
  6 25  1  0  0  0
  8 26  1  0  0  0
  8 27  1  0  0  0
  9 28  1  0  0  0
  9 29  1  0  0  0
 10 30  1  0  0  0
 10 31  1  0  0  0
 11 32  1  0  0  0
 11 33  1  0  0  0
 12 34  1  0  0  0
 13 35  1  0  0  0
 13 36  1  0  0  0
 14 37  1  0  0  0
 14 38  1  0  0  0
 14 39  1  0  0  0
 15 40  1  0  0  0
 15 41  1  0  0  0
 16 42  1  0  0  0
 16 43  1  0  0  0
 16 44  1  0  0  0
M  END
