CIP:2R; BB:P-93.5.3.2;
__Jmol-14_06031710033D 1   1.00000     0.00000     0
Jmol version 14.17.2  2017-05-27 15:31 EXTRACT: ({0:20})
 21 22  0  0  0  0              1 V2000
  -2.69261   0.71644  -0.48746 C   0  0  0  0  0  0
  -1.72967   1.61446   0.30017 C   0  0  0  0  0  0
  -3.96259   0.87081   0.30209 C   0  0  0  0  0  0
  -2.53542   2.53276   1.04757 O   0  0  0  0  0  0
  -3.89199   2.33404   0.64728 C   0  0  0  0  0  0
  -0.94453   0.78606   1.15649 O   0  0  0  0  0  0
  -0.75123   2.43090  -0.52995 C   0  0  0  0  0  0
   0.40158   0.73841   0.65878 C   0  0  0  0  0  0
   0.47731   1.57946  -0.59511 C   0  0  0  0  0  0
  -2.37557  -0.33329  -0.55117 H   0  0  0  0  0  0
  -2.85444   1.08673  -1.50341 H   0  0  0  0  0  0
  -3.91740   0.26610   1.21403 H   0  0  0  0  0  0
  -4.86909   0.60256  -0.25321 H   0  0  0  0  0  0
  -4.57665   2.63721   1.44155 H   0  0  0  0  0  0
  -4.08116   2.95717  -0.23519 H   0  0  0  0  0  0
  -0.51282   3.36678  -0.01413 H   0  0  0  0  0  0
  -1.13556   2.70887  -1.51420 H   0  0  0  0  0  0
   0.67835  -0.29983   0.45746 H   0  0  0  0  0  0
   1.06541   1.12006   1.43738 H   0  0  0  0  0  0
   1.39681   2.17680  -0.63604 H   0  0  0  0  0  0
   0.45563   0.94653  -1.48913 H   0  0  0  0  0  0
  2  1  1  0  0  0
  1  3  1  0  0  0
  2  4  1  0  0  0
  2  6  1  0  0  0
  2  7  1  0  0  0
  3  5  1  0  0  0
  4  5  1  0  0  0
  6  8  1  0  0  0
  7  9  1  0  0  0
  8  9  1  0  0  0
  1 10  1  0  0  0
  1 11  1  0  0  0
  3 12  1  0  0  0
  3 13  1  0  0  0
  5 14  1  0  0  0
  5 15  1  0  0  0
  7 16  1  0  0  0
  7 17  1  0  0  0
  8 18  1  0  0  0
  8 19  1  0  0  0
  9 20  1  0  0  0
  9 21  1  0  0  0
M  END
