CIP:2Z 3Z 5Z 6Z 7S 11Z 12Z 16Z 17Z 20E 21E; Rule 3
__Jmol-14_06031709173D 1   1.00000     0.00000     0
Jmol version 14.17.2  2017-05-27 15:31 EXTRACT: ({0:53})
 54 53  0  0  0  0              1 V2000
  -1.33246  -2.89440  -2.03676 C   0  0  0  0  0  0
  -0.62297  -1.78604  -1.34500 C   0  0  0  0  0  0
   0.64383  -1.76946  -0.90953 C   0  0  0  0  0  0
   1.75221  -2.77436  -0.87414 C   0  0  0  0  0  0
   1.61223  -4.29743  -1.10918 C   0  0  0  0  0  0
   2.70086  -5.01972  -1.48507 C   0  0  0  0  0  0
   4.03485  -4.40554  -1.42369 C   0  0  0  0  0  0
   5.19255  -5.25354  -1.77671 C   0  0  0  0  0  0
   6.43540  -4.81605  -1.47377 C   0  0  0  0  0  0
   7.40901  -5.90634  -1.12621 C   0  0  0  0  0  0
   8.87048  -5.61622  -1.22833 C   0  0  0  0  0  0
   9.79138  -6.53002  -1.55806 C   0  0  0  0  0  0
   9.50927  -7.98089  -1.75263 C   0  0  0  0  0  0
   4.19903  -4.14257  -0.02390 O   0  0  0  0  0  0
   6.63587  -3.35721  -1.03042 C   0  0  0  0  0  0
   7.79853  -2.58625  -1.55616 C   0  0  0  0  0  0
   7.90849  -1.24862  -1.47942 C   0  0  0  0  0  0
   6.84294  -0.28535  -1.06693 C   0  0  0  0  0  0
   0.49004  -5.08929  -0.49403 C   0  0  0  0  0  0
   0.02430  -6.25890  -1.31595 C   0  0  0  0  0  0
  -1.08985  -6.94250  -1.02618 C   0  0  0  0  0  0
  -1.48343  -8.18817  -1.73600 C   0  0  0  0  0  0
  -0.64649  -3.62020  -2.47190 H   0  0  0  0  0  0
  -1.92632  -2.48899  -2.85942 H   0  0  0  0  0  0
  -2.01113  -3.39231  -1.33910 H   0  0  0  0  0  0
  -1.20332  -0.88271  -1.20729 H   0  0  0  0  0  0
   0.97622  -0.81379  -0.50543 H   0  0  0  0  0  0
   2.17904  -2.64907   0.12053 H   0  0  0  0  0  0
   2.47613  -2.35884  -1.57884 H   0  0  0  0  0  0
   2.68199  -6.10097  -1.49283 H   0  0  0  0  0  0
   4.05994  -3.50281  -2.04424 H   0  0  0  0  0  0
   4.99748  -6.30721  -1.97461 H   0  0  0  0  0  0
   7.17194  -6.77997  -1.74978 H   0  0  0  0  0  0
   7.21370  -6.19522  -0.08980 H   0  0  0  0  0  0
   9.23478  -4.64230  -0.93122 H   0  0  0  0  0  0
  10.83031  -6.21986  -1.61059 H   0  0  0  0  0  0
   9.39040  -8.21591  -2.81457 H   0  0  0  0  0  0
   8.61384  -8.30788  -1.21179 H   0  0  0  0  0  0
  10.33880  -8.56634  -1.35363 H   0  0  0  0  0  0
   4.08738  -3.19548   0.11886 H   0  0  0  0  0  0
   6.65987  -3.33466   0.06225 H   0  0  0  0  0  0
   5.77780  -2.75596  -1.32727 H   0  0  0  0  0  0
   8.62836  -3.10793  -2.00055 H   0  0  0  0  0  0
   8.85688  -0.81357  -1.76602 H   0  0  0  0  0  0
   6.02926  -0.73666  -0.49693 H   0  0  0  0  0  0
   6.41616   0.16838  -1.96950 H   0  0  0  0  0  0
   7.26765   0.51801  -0.45680 H   0  0  0  0  0  0
  -0.34741  -4.44948  -0.21202 H   0  0  0  0  0  0
   0.87174  -5.47772   0.45915 H   0  0  0  0  0  0
   0.64384  -6.61991  -2.13426 H   0  0  0  0  0  0
  -1.71660  -6.61306  -0.20252 H   0  0  0  0  0  0
  -0.76493  -8.99361  -1.53335 H   0  0  0  0  0  0
  -1.54978  -8.02883  -2.81837 H   0  0  0  0  0  0
  -2.46105  -8.52062  -1.38625 H   0  0  0  0  0  0
  1  2  1  0  0  0
  2  3  2  0  0  0
  3  4  1  0  0  0
  4  5  1  0  0  0
  5  6  2  0  0  0
  5 19  1  0  0  0
  6  7  1  0  0  0
  7  8  1  0  0  0
  7 14  1  0  0  0
  8  9  2  0  0  0
  9 10  1  0  0  0
  9 15  1  0  0  0
 10 11  1  0  0  0
 11 12  2  0  0  0
 12 13  1  0  0  0
 15 16  1  0  0  0
 16 17  2  0  0  0
 17 18  1  0  0  0
 19 20  1  0  0  0
 20 21  2  0  0  0
 21 22  1  0  0  0
  1 23  1  0  0  0
  1 24  1  0  0  0
  1 25  1  0  0  0
  2 26  1  0  0  0
  3 27  1  0  0  0
  4 28  1  0  0  0
  4 29  1  0  0  0
  6 30  1  0  0  0
  7 31  1  0  0  0
  8 32  1  0  0  0
 10 33  1  0  0  0
 10 34  1  0  0  0
 11 35  1  0  0  0
 12 36  1  0  0  0
 13 37  1  0  0  0
 13 38  1  0  0  0
 13 39  1  0  0  0
 14 40  1  0  0  0
 15 41  1  0  0  0
 15 42  1  0  0  0
 16 43  1  0  0  0
 17 44  1  0  0  0
 18 45  1  0  0  0
 18 46  1  0  0  0
 18 47  1  0  0  0
 19 48  1  0  0  0
 19 49  1  0  0  0
 20 50  1  0  0  0
 21 51  1  0  0  0
 22 52  1  0  0  0
 22 53  1  0  0  0
 22 54  1  0  0  0
M  END
