CIP:1S; BB:P-93.2.4;Rule 2 for sulfur
__Jmol-14_06031709483D 1   1.00000     0.00000     0
Jmol version 14.17.2  2017-05-27 15:31 EXTRACT: ({0:5 8:10})
  9  8  0  0  0  0              1 V2000
   0.24401   1.21031  -1.02004 P   0  0  0  0  0  0
   0.28781   2.65319  -1.98003 O   2  5  0  0  0  0
  -0.62985   1.53278   0.22518 O   0  0  0  0  0  0
  -0.54355  -0.10520  -1.85737 O   0  0  0  0  0  0
   1.81719   0.77667  -0.43121 O   1  5  0  0  0  0
   0.33104  -0.55639  -2.85868 C   0  0  0  0  0  0
   1.23213  -1.02039  -2.40768 H   0  0  0  0  0  0
   0.60446   0.26657  -3.55770 H   0  0  0  0  0  0
  -0.18665  -1.33436  -3.45080 H   0  0  0  0  0  0
  1  2  1  0  0  0
  1  3  2  0  0  0
  1  4  1  0  0  0
  1  5  1  0  0  0
  4  6  1  0  0  0
  6  7  1  0  0  0
  6  8  1  0  0  0
  6  9  1  0  0  0
M  END
