CIP:1R 27P 28P 42R; BB:P-93.5.2.3;
__Jmol-14_06031710023D 1   1.00000     0.00000     0
Jmol version 14.17.2  2017-05-27 15:31 EXTRACT: ({0:131})
132133  0  0  0  0              1 V2000
  12.19883   1.79465   0.77820 C   0  0  0  0  0  0
  13.30666   2.81722   1.21836 C   0  0  0  0  0  0
  14.83928   2.60949   1.54111 C   0  0  0  0  0  0
  15.59409   1.30807   1.89964 C   0  0  0  0  0  0
  17.04700   1.64189   2.38773 C   0  0  0  0  0  0
  18.14314   0.62730   2.00805 C   0  0  0  0  0  0
  19.41070   0.65832   2.89672 C   0  0  0  0  0  0
  20.24764   1.94922   2.85945 C   0  0  0  0  0  0
  21.58283   1.78979   3.62627 C   0  0  0  0  0  0
  22.39897   3.08552   3.73904 C   0  0  0  0  0  0
  21.77097   4.09057   4.72462 C   0  0  0  0  0  0
  21.89749   5.55658   4.27371 C   0  0  0  0  0  0
  20.69869   6.40471   4.71473 C   0  0  0  0  0  0
   4.28511   7.73011   2.00129 C   0  0  0  0  0  0
   2.79601   7.51427   2.40844 C   0  0  0  0  0  0
   1.97420   6.79764   1.31923 C   0  0  0  0  0  0
   0.60015   6.22001   1.69788 C   0  0  0  0  0  0
   0.43802   4.78231   1.11999 C   0  0  0  0  0  0
   1.01360   3.69185   2.10036 C   0  0  0  0  0  0
   1.76484   2.44107   1.52729 C   0  0  0  0  0  0
   2.48230   1.31602   2.46697 C   0  0  0  0  0  0
   3.05872   1.48227   3.95484 C   0  0  0  0  0  0
   4.38119   0.85793   4.65039 C   0  0  0  0  0  0
   5.88203   1.30052   4.48800 C   0  0  0  0  0  0
   6.59086   0.67614   3.25822 C   0  0  0  0  0  0
   7.44453   1.67868   2.44511 C   0  0  0  0  0  0
   8.50872   1.11704   1.51563 C   0  0  0  0  0  0
  10.69636   2.42028   0.76829 C   0  0  0  0  0  0
   9.60949   1.74734   1.13038 C   0  0  0  0  0  0
  19.51068   6.20352   3.77424 C   0  0  0  0  0  0
   4.97353   6.44812   1.48145 C   0  0  0  0  0  0
  18.29154   7.05016   4.14051 C   0  0  0  0  0  0
  17.01857   6.23325   3.94044 C   0  0  0  0  0  0
  15.76565   7.00370   4.33145 C   0  0  0  0  0  0
  14.52050   6.16883   4.06599 C   0  0  0  0  0  0
  13.24118   6.93675   4.39450 C   0  0  0  0  0  0
  12.02737   6.08248   4.03890 C   0  0  0  0  0  0
  10.82307   6.87039   3.52298 C   0  0  0  0  0  0
   6.47419   6.51927   1.11539 C   0  0  0  0  0  0
   6.86582   5.20009   0.41037 C   0  0  0  0  0  0
   8.21583   4.47560   0.57547 C   0  0  0  0  0  0
   9.62913   4.97216   0.19739 C   0  0  0  0  0  0
  10.27842   6.05347   1.12475 C   0  0  0  0  0  0
   9.94804   5.97339   2.62576 C   0  0  0  0  0  0
  10.58473   3.72800  -0.08738 C   0  0  0  0  0  0
  12.36929   0.48193   1.54423 C   0  0  0  0  0  0
  13.20737  -0.37631   1.30640 O   0  0  0  0  0  0
  11.48975   0.28312   2.53398 O   0  0  0  0  0  0
   8.26084   0.15863   1.05949 H   0  0  0  0  0  0
  13.35734   3.54177   0.40019 H   0  0  0  0  0  0
  12.89463   3.38070   2.05788 H   0  0  0  0  0  0
  15.04546   3.30647   2.35486 H   0  0  0  0  0  0
  15.39012   3.03384   0.69214 H   0  0  0  0  0  0
  15.63148   0.64701   1.02422 H   0  0  0  0  0  0
  15.07442   0.77199   2.69721 H   0  0  0  0  0  0
  17.02042   1.74798   3.47968 H   0  0  0  0  0  0
  17.36035   2.61631   2.00862 H   0  0  0  0  0  0
  18.43303   0.78581   0.96042 H   0  0  0  0  0  0
  17.72861  -0.38637   2.05678 H   0  0  0  0  0  0
  20.05199  -0.17386   2.59704 H   0  0  0  0  0  0
  19.12276   0.45421   3.93656 H   0  0  0  0  0  0
  19.65742   2.76877   3.28378 H   0  0  0  0  0  0
  20.46107   2.22371   1.82405 H   0  0  0  0  0  0
  22.19770   1.03958   3.10955 H   0  0  0  0  0  0
  21.39892   1.39384   4.62809 H   0  0  0  0  0  0
  22.52112   3.52202   2.73911 H   0  0  0  0  0  0
  23.40930   2.84619   4.08620 H   0  0  0  0  0  0
  22.24595   3.97573   5.70248 H   0  0  0  0  0  0
  20.71998   3.84123   4.89112 H   0  0  0  0  0  0
  22.01584   5.63592   3.19159 H   0  0  0  0  0  0
  22.81136   5.97521   4.71241 H   0  0  0  0  0  0
  20.98210   7.46402   4.71311 H   0  0  0  0  0  0
  20.41404   6.15830   5.74610 H   0  0  0  0  0  0
   4.83716   8.12913   2.85527 H   0  0  0  0  0  0
   4.33075   8.49810   1.21839 H   0  0  0  0  0  0
   2.33876   8.48269   2.63820 H   0  0  0  0  0  0
   2.75982   6.93913   3.34223 H   0  0  0  0  0  0
   2.55433   5.96233   0.94146 H   0  0  0  0  0  0
   1.85309   7.48079   0.46866 H   0  0  0  0  0  0
  -0.17614   6.87383   1.28480 H   0  0  0  0  0  0
   0.44219   6.21859   2.78503 H   0  0  0  0  0  0
   0.89709   4.73965   0.12290 H   0  0  0  0  0  0
  -0.63139   4.61221   0.92977 H   0  0  0  0  0  0
   0.18260   3.34962   2.72426 H   0  0  0  0  0  0
   1.71650   4.18687   2.76988 H   0  0  0  0  0  0
   2.48433   2.79288   0.78446 H   0  0  0  0  0  0
   1.03064   1.90749   0.91274 H   0  0  0  0  0  0
   3.20708   0.77940   1.85110 H   0  0  0  0  0  0
   1.68125   0.57348   2.58335 H   0  0  0  0  0  0
   2.86922   2.48691   4.33991 H   0  0  0  0  0  0
   2.34234   0.85284   4.49916 H   0  0  0  0  0  0
   4.36274  -0.23432   4.58438 H   0  0  0  0  0  0
   4.19762   1.02450   5.71861 H   0  0  0  0  0  0
   6.45235   0.95548   5.38436 H   0  0  0  0  0  0
   5.98598   2.38881   4.53673 H   0  0  0  0  0  0
   5.83623   0.22698   2.60639 H   0  0  0  0  0  0
   7.22453  -0.15623   3.59951 H   0  0  0  0  0  0
   7.92452   2.37833   3.13807 H   0  0  0  0  0  0
   6.74090   2.26346   1.84051 H   0  0  0  0  0  0
  19.24224   5.14083   3.76282 H   0  0  0  0  0  0
  19.80865   6.44347   2.74532 H   0  0  0  0  0  0
   4.46149   6.11763   0.57913 H   0  0  0  0  0  0
   4.83350   5.66218   2.23031 H   0  0  0  0  0  0
  18.26412   7.94606   3.50969 H   0  0  0  0  0  0
  18.34799   7.40184   5.17845 H   0  0  0  0  0  0
  17.07538   5.31926   4.54697 H   0  0  0  0  0  0
  16.94859   5.91336   2.89651 H   0  0  0  0  0  0
  15.71613   7.93576   3.76622 H   0  0  0  0  0  0
  15.81007   7.27255   5.39465 H   0  0  0  0  0  0
  14.55696   5.24178   4.64661 H   0  0  0  0  0  0
  14.50769   5.87703   3.00460 H   0  0  0  0  0  0
  13.23755   7.87871   3.83121 H   0  0  0  0  0  0
  13.21975   7.20480   5.45485 H   0  0  0  0  0  0
  11.72679   5.50463   4.92467 H   0  0  0  0  0  0
  12.31288   5.34441   3.28442 H   0  0  0  0  0  0
  11.12487   7.78287   2.99098 H   0  0  0  0  0  0
  10.23649   7.20402   4.38411 H   0  0  0  0  0  0
   7.05290   6.69552   2.01637 H   0  0  0  0  0  0
   6.65633   7.36099   0.43441 H   0  0  0  0  0  0
   6.63104   5.28873  -0.65626 H   0  0  0  0  0  0
   6.15834   4.44318   0.77510 H   0  0  0  0  0  0
   8.26234   4.11356   1.60212 H   0  0  0  0  0  0
   8.07339   3.60461  -0.07068 H   0  0  0  0  0  0
   9.95074   7.04255   0.77625 H   0  0  0  0  0  0
  11.36413   6.05533   0.98447 H   0  0  0  0  0  0
   8.91767   6.27903   2.77071 H   0  0  0  0  0  0
  10.01082   4.93445   2.96621 H   0  0  0  0  0  0
  10.32033   3.37174  -1.09207 H   0  0  0  0  0  0
  11.57523   4.14396  -0.24166 H   0  0  0  0  0  0
  11.51325  -0.67972   2.68273 H   0  0  0  0  0  0
   9.53718   5.46822  -0.77951 H   0  0  0  0  0  0
  12.39945   1.51290  -0.26023 H   0  0  0  0  0  0
  1  2  1  0  0  0
  1 28  1  0  0  0
  1 46  1  0  0  0
  2  3  1  0  0  0
  3  4  1  0  0  0
  4  5  1  0  0  0
  5  6  1  0  0  0
  6  7  1  0  0  0
  7  8  1  0  0  0
  8  9  1  0  0  0
  9 10  1  0  0  0
 10 11  1  0  0  0
 11 12  1  0  0  0
 12 13  1  0  0  0
 13 30  1  0  0  0
 14 15  1  0  0  0
 14 31  1  0  0  0
 15 16  1  0  0  0
 16 17  1  0  0  0
 17 18  1  0  0  0
 18 19  1  0  0  0
 19 20  1  0  0  0
 20 21  1  0  0  0
 21 22  1  0  0  0
 22 23  1  0  0  0
 23 24  1  0  0  0
 24 25  1  0  0  0
 25 26  1  0  0  0
 26 27  1  0  0  0
 27 29  2  0  0  0
 27 49  1  0  0  0
 28 29  2  0  0  0
 28 45  1  0  0  0
 30 32  1  0  0  0
 31 39  1  0  0  0
 32 33  1  0  0  0
 33 34  1  0  0  0
 34 35  1  0  0  0
 35 36  1  0  0  0
 36 37  1  0  0  0
 37 38  1  0  0  0
 38 44  1  0  0  0
 39 40  1  0  0  0
 40 41  1  0  0  0
 41 42  1  0  0  0
 42 43  1  0  0  0
 42 45  1  0  0  0
 43 44  1  0  0  0
 46 47  2  0  0  0
 46 48  1  0  0  0
 50  2  1  0  0  0
 51  2  1  0  0  0
 52  3  1  0  0  0
 53  3  1  0  0  0
 54  4  1  0  0  0
 55  4  1  0  0  0
 56  5  1  0  0  0
 57  5  1  0  0  0
 58  6  1  0  0  0
 59  6  1  0  0  0
 60  7  1  0  0  0
 61  7  1  0  0  0
 62  8  1  0  0  0
 63  8  1  0  0  0
 64  9  1  0  0  0
 65  9  1  0  0  0
 66 10  1  0  0  0
 67 10  1  0  0  0
 68 11  1  0  0  0
 69 11  1  0  0  0
 70 12  1  0  0  0
 71 12  1  0  0  0
 72 13  1  0  0  0
 73 13  1  0  0  0
 74 14  1  0  0  0
 75 14  1  0  0  0
 76 15  1  0  0  0
 77 15  1  0  0  0
 78 16  1  0  0  0
 79 16  1  0  0  0
 80 17  1  0  0  0
 81 17  1  0  0  0
 82 18  1  0  0  0
 83 18  1  0  0  0
 84 19  1  0  0  0
 85 19  1  0  0  0
 86 20  1  0  0  0
 87 20  1  0  0  0
 88 21  1  0  0  0
 89 21  1  0  0  0
 90 22  1  0  0  0
 91 22  1  0  0  0
 92 23  1  0  0  0
 93 23  1  0  0  0
 94 24  1  0  0  0
 95 24  1  0  0  0
 96 25  1  0  0  0
 97 25  1  0  0  0
 98 26  1  0  0  0
 99 26  1  0  0  0
100 30  1  0  0  0
101 30  1  0  0  0
102 31  1  0  0  0
103 31  1  0  0  0
104 32  1  0  0  0
105 32  1  0  0  0
106 33  1  0  0  0
107 33  1  0  0  0
108 34  1  0  0  0
109 34  1  0  0  0
110 35  1  0  0  0
111 35  1  0  0  0
112 36  1  0  0  0
113 36  1  0  0  0
114 37  1  0  0  0
115 37  1  0  0  0
116 38  1  0  0  0
117 38  1  0  0  0
118 39  1  0  0  0
119 39  1  0  0  0
120 40  1  0  0  0
121 40  1  0  0  0
122 41  1  0  0  0
123 41  1  0  0  0
124 43  1  0  0  0
125 43  1  0  0  0
126 44  1  0  0  0
127 44  1  0  0  0
128 45  1  0  0  0
129 45  1  0  0  0
130 48  1  0  0  0
131 42  1  0  0  0
132  1  1  0  0  0
M  END
