CIP:2M 3M; BB:P-93.5.4.1;
__Jmol-14_06031710073D 1   1.00000     0.00000     0
Jmol version 14.17.2  2017-05-27 15:31 EXTRACT: ({0:31})
 32 34  0  0  0  0              1 V2000
   4.10720  -1.70344   1.24555 C   0  0  0  0  0  0
   2.76829  -2.45688   1.42186 C   0  0  0  0  0  0
   2.72139  -3.95583   2.02458 C   0  0  0  0  0  0
   4.00198  -4.81911   2.14526 C   0  0  0  0  0  0
   5.44466  -4.45011   2.34399 C   0  0  0  0  0  0
   5.78787  -3.04920   2.60877 C   0  0  0  0  0  0
   5.51984  -2.16793   1.46628 C   0  0  0  0  0  0
   1.72406  -1.64811   0.94629 C   0  0  0  0  0  0
   1.88790  -0.31629   0.33534 C   0  0  0  0  0  0
   3.07999   0.22696   0.16919 C   0  0  0  0  0  0
   4.18623  -0.47387   0.69204 C   0  0  0  0  0  0
   3.97029  -6.14900   2.37363 C   0  0  0  0  0  0
   2.87729  -6.73329   3.03652 C   0  0  0  0  0  0
   1.74409  -6.04080   3.08580 C   0  0  0  0  0  0
   1.63630  -4.71019   2.47576 C   0  0  0  0  0  0
   6.41035  -2.69712   3.60091 O   0  0  0  0  0  0
   0.25719  -4.24315   2.58178 N   0  3  0  0  0  0
   0.06194  -3.23566   3.26340 O   0  5  0  0  0  0
  -0.61902  -4.96384   2.08205 O   0  0  0  0  0  0
   0.33836  -2.07378   0.76047 N   0  3  0  0  0  0
  -0.54817  -1.32880   1.20689 O   0  5  0  0  0  0
   0.15188  -3.06690   0.05528 O   0  0  0  0  0  0
   6.06215  -4.79242   1.50808 H   0  0  0  0  0  0
   5.81009  -4.96148   3.24793 H   0  0  0  0  0  0
   6.21010  -1.32769   1.62824 H   0  0  0  0  0  0
   5.88345  -2.66580   0.56292 H   0  0  0  0  0  0
   1.01911   0.20349  -0.07270 H   0  0  0  0  0  0
   3.25479   1.14616  -0.38328 H   0  0  0  0  0  0
   5.12630   0.04399   0.53978 H   0  0  0  0  0  0
   4.86932  -6.76523   2.40732 H   0  0  0  0  0  0
   3.06076  -7.61577   3.63989 H   0  0  0  0  0  0
   0.91830  -6.43030   3.66858 H   0  0  0  0  0  0
  2  1  1  0  0  0
  1  7  1  0  0  0
  1 11  2  0  0  0
  2  3  1  0  0  0
  2  8  2  0  0  0
  3  4  1  0  0  0
  3 15  2  0  0  0
  4  5  1  0  0  0
  4 12  2  0  0  0
  5  6  1  0  0  0
  6  7  1  0  0  0
  6 16  2  0  0  0
  8  9  1  0  0  0
  8 20  1  0  0  0
  9 10  2  0  0  0
 10 11  1  0  0  0
 12 13  1  0  0  0
 13 14  2  0  0  0
 14 15  1  0  0  0
 15 17  1  0  0  0
 17 18  1  0  0  0
 17 19  2  0  0  0
 20 21  1  0  0  0
 20 22  2  0  0  0
  5 23  1  0  0  0
  5 24  1  0  0  0
  7 25  1  0  0  0
  7 26  1  0  0  0
  9 27  1  0  0  0
 10 28  1  0  0  0
 11 29  1  0  0  0
 12 30  1  0  0  0
 13 31  1  0  0  0
 14 32  1  0  0  0
M  END
