CIP:1S 9S 14S; Rule 4b/4c tetraspiro
__Jmol-14_05311721503D 1   1.00000     0.00000     0
Jmol version 14.17.2  2017-05-27 15:31 EXTRACT: ({0:52})
 53 56  0  0  0  0              1 V2000
   2.70444  -0.37148  -0.10510 C   0  0  0  0  0  0
   3.67319  -1.41269  -0.67271 C   0  0  0  0  0  0
   4.77318  -0.69768  -1.46325 C   0  0  0  0  0  0
   5.47430   0.30829  -0.54511 C   0  0  0  0  0  0
   4.43640   1.28295   0.01765 C   0  0  0  0  0  0
   3.42515   0.55125   0.71356 O   0  0  0  0  0  0
   2.03531   0.38092  -1.25681 C   0  0  0  0  0  0
   1.05881   1.41531  -0.69350 C   0  0  0  0  0  0
  -0.00986   0.70476   0.13978 C   0  0  0  0  0  0
   0.66011  -0.04164   1.29530 C   0  0  0  0  0  0
   1.63741  -1.07642   0.73452 C   0  0  0  0  0  0
  -0.76412  -0.29219  -0.74248 C   0  0  0  0  0  0
  -1.83192  -1.00426   0.09025 C   0  0  0  0  0  0
  -2.81398   0.02646   0.65026 C   0  0  0  0  0  0
  -2.05980   1.02390   1.53176 C   0  0  0  0  0  0
  -0.99189   1.73577   0.69879 C   0  0  0  0  0  0
  -3.44199   0.72264  -0.42795 O   0  0  0  0  0  0
  -4.15891  -0.12246  -1.33014 C   0  0  0  0  0  0
  -5.27933  -0.84063  -0.57353 C   0  0  0  0  0  0
  -4.67230  -1.63878   0.58450 C   0  0  0  0  0  0
  -3.88001  -0.68693   1.48587 C   0  0  0  0  0  0
   4.12085  -1.97760   0.14494 H   0  0  0  0  0  0
   3.13283  -2.09131  -1.33264 H   0  0  0  0  0  0
   5.49703  -1.42851  -1.82368 H   0  0  0  0  0  0
   4.33101  -0.17221  -2.30975 H   0  0  0  0  0  0
   5.95780  -0.22251   0.27499 H   0  0  0  0  0  0
   6.22210   0.86094  -1.11388 H   0  0  0  0  0  0
   4.92284   1.97475   0.70536 H   0  0  0  0  0  0
   3.98229   1.84249  -0.80022 H   0  0  0  0  0  0
   2.79660   0.88618  -1.85125 H   0  0  0  0  0  0
   1.49340  -0.32544  -1.88575 H   0  0  0  0  0  0
   1.60034   2.12161  -0.06430 H   0  0  0  0  0  0
   0.58269   1.95078  -1.51487 H   0  0  0  0  0  0
   1.20151   0.66800   1.92091 H   0  0  0  0  0  0
  -0.10030  -0.54574   1.89169 H   0  0  0  0  0  0
   1.09536  -1.78692   0.11045 H   0  0  0  0  0  0
   2.11552  -1.60761   1.55755 H   0  0  0  0  0  0
  -1.24048   0.23955  -1.56616 H   0  0  0  0  0  0
  -0.06424  -1.02687  -1.14069 H   0  0  0  0  0  0
  -2.36953  -1.71400  -0.53868 H   0  0  0  0  0  0
  -1.35545  -1.53670   0.91337 H   0  0  0  0  0  0
  -2.75969   1.75859   1.92975 H   0  0  0  0  0  0
  -1.58343   0.49258   2.35572 H   0  0  0  0  0  0
  -0.45455   2.44599   1.32733 H   0  0  0  0  0  0
  -1.46837   2.26759  -0.12485 H   0  0  0  0  0  0
  -4.58885   0.48101  -2.12947 H   0  0  0  0  0  0
  -3.47815  -0.85918  -1.75673 H   0  0  0  0  0  0
  -5.98257  -0.10625  -0.18072 H   0  0  0  0  0  0
  -5.79940  -1.51875  -1.25019 H   0  0  0  0  0  0
  -5.46942  -2.10822   1.16111 H   0  0  0  0  0  0
  -4.00621  -2.40564   0.18908 H   0  0  0  0  0  0
  -3.39892  -1.25520   2.28190 H   0  0  0  0  0  0
  -4.55561   0.04996   1.92034 H   0  0  0  0  0  0
  1  2  1  0  0  0
  2  3  1  0  0  0
  3  4  1  0  0  0
  4  5  1  0  0  0
  5  6  1  0  0  0
  1  6  1  0  0  0
  1  7  1  0  0  0
  7  8  1  0  0  0
  8  9  1  0  0  0
  9 10  1  0  0  0
 10 11  1  0  0  0
  1 11  1  0  0  0
  9 12  1  0  0  0
 12 13  1  0  0  0
 13 14  1  0  0  0
 14 15  1  0  0  0
 15 16  1  0  0  0
  9 16  1  0  0  0
 14 17  1  0  0  0
 17 18  1  0  0  0
 18 19  1  0  0  0
 19 20  1  0  0  0
 20 21  1  0  0  0
 14 21  1  0  0  0
  2 22  1  0  0  0
  2 23  1  0  0  0
  3 24  1  0  0  0
  3 25  1  0  0  0
  4 26  1  0  0  0
  4 27  1  0  0  0
  5 28  1  0  0  0
  5 29  1  0  0  0
  7 30  1  0  0  0
  7 31  1  0  0  0
  8 32  1  0  0  0
  8 33  1  0  0  0
 10 34  1  0  0  0
 10 35  1  0  0  0
 11 36  1  0  0  0
 11 37  1  0  0  0
 12 38  1  0  0  0
 12 39  1  0  0  0
 13 40  1  0  0  0
 13 41  1  0  0  0
 15 42  1  0  0  0
 15 43  1  0  0  0
 16 44  1  0  0  0
 16 45  1  0  0  0
 18 46  1  0  0  0
 18 47  1  0  0  0
 19 48  1  0  0  0
 19 49  1  0  0  0
 20 50  1  0  0  0
 20 51  1  0  0  0
 21 52  1  0  0  0
 21 53  1  0  0  0
M  END
