CIP:1R; BB:P-93.2.4;Rule 2 for sulfur
__Jmol-14_06031709493D 1   1.00000     0.00000     0
Jmol version 14.17.2  2017-05-27 15:31 EXTRACT: ({0:30})
 31 32  0  0  0  0              1 V2000
  -4.67245  -0.87840   0.67105 S   0  0  0  0  0  0
  -5.28035  -2.04537   1.28258 O   2  0  0  0  0  0
  -3.86997  -1.05556  -0.53281 O   0  0  0  0  0  0
  -3.66678  -0.05162   1.98586 C   0  0  0  0  0  0
  -5.94981   0.31050   0.36626 C   0  0  0  0  0  0
  -2.50523   0.76158   1.40484 C   0  0  0  0  0  0
  -2.48081   2.17480   1.23218 C   0  0  0  0  0  0
  -1.39664   0.03670   0.96261 C   0  0  0  0  0  0
  -1.43938   2.79218   0.54358 C   0  0  0  0  0  0
  -0.33354   0.66750   0.33174 C   0  0  0  0  0  0
  -0.36373   2.03151   0.10521 C   0  0  0  0  0  0
  -7.35758  -0.00542   0.50190 C   0  0  0  0  0  0
  -5.62041   1.61334   0.36385 C   0  0  0  0  0  0
  -8.24756   0.99144   0.65181 C   0  0  0  0  0  0
  -6.56631   2.67651   0.26997 C   0  0  0  0  0  0
  -7.85727   2.39410   0.47849 C   0  0  0  0  0  0
  -8.87853   3.48191   0.52498 C   0  0  0  0  0  0
  -3.27396  -0.85401   2.62342 H   0  0  0  0  0  0
  -4.33122   0.54015   2.62913 H   0  0  0  0  0  0
  -3.27647   2.84417   1.55790 H   0  0  0  0  0  0
  -1.36823  -1.04023   1.07493 H   0  0  0  0  0  0
  -1.46893   3.85792   0.34673 H   0  0  0  0  0  0
   0.51120   0.07595  -0.01054 H   0  0  0  0  0  0
   0.45715   2.51175  -0.41994 H   0  0  0  0  0  0
  -7.64488  -1.04655   0.63816 H   0  0  0  0  0  0
  -4.67397   1.91479   0.71593 H   0  0  0  0  0  0
  -9.27185   0.77043   0.92101 H   0  0  0  0  0  0
  -6.19617   3.68913   0.10865 H   0  0  0  0  0  0
  -8.86762   4.06051  -0.40120 H   0  0  0  0  0  0
  -8.66812   4.16374   1.36130 H   0  0  0  0  0  0
  -9.88936   3.09007   0.66257 H   0  0  0  0  0  0
  1  2  2  0  0  0
  1  3  2  0  0  0
  1  4  1  0  0  0
  1  5  1  0  0  0
  4  6  1  0  0  0
  5 12  1  0  0  0
  5 13  2  0  0  0
  6  7  1  0  0  0
  6  8  2  0  0  0
  7  9  2  0  0  0
  8 10  1  0  0  0
  9 11  1  0  0  0
 10 11  2  0  0  0
 12 14  2  0  0  0
 13 15  1  0  0  0
 14 16  1  0  0  0
 15 16  2  0  0  0
 16 17  1  0  0  0
  4 18  1  0  0  0
  4 19  1  0  0  0
  7 20  1  0  0  0
  8 21  1  0  0  0
  9 22  1  0  0  0
 10 23  1  0  0  0
 11 24  1  0  0  0
 12 25  1  0  0  0
 13 26  1  0  0  0
 14 27  1  0  0  0
 15 28  1  0  0  0
 17 29  1  0  0  0
 17 30  1  0  0  0
 17 31  1  0  0  0
M  END
