CIP:1r 3R 7S 10R 12R 17S 21S 25R 28R 30R 32S 34S 39R 43R 46r 48S 52R 56R 60S; Rule 4a/4b extensive branch test 2
__Jmol-14_05311708243D 1   1.00000     0.00000     0
Jmol version 14.17.2  2017-05-27 15:31 EXTRACT: ({0:95})
 96 95  0  0  0  0              1 V2000
  -6.27776   0.51154   2.15602 C   0  0  0  0  0  0
  -5.94618   0.38351   3.21197 H   0  0  0  0  0  0
  -7.54633   1.44256   2.28578 C   0  0  0  0  0  0
  -8.26820   0.90361   2.94474 H   0  0  0  0  0  0
  -8.46055   1.76480   0.77568 Cl  0  0  0  0  0  0
  -7.30400   2.76996   2.97991 C   0  0  0  0  0  0
  -5.03339   1.07954   1.34249 C   0  0  0  0  0  0
  -4.75772   1.89835   2.04461 H   0  0  0  0  0  0
  -5.49147   1.98629  -0.14686 Cl  0  0  0  0  0  0
  -3.65706   0.25698   1.07256 C   0  0  0  0  0  0
  -3.35852  -0.14789   2.05969 H   0  0  0  0  0  0
  -3.45119  -0.97306  -0.02994 C   0  0  0  0  0  0
  -2.35482  -0.96580  -0.01257 H   0  0  0  0  0  0
  -3.94576  -0.44037  -1.66866 Cl  0  0  0  0  0  0
  -3.66121  -2.61292   0.05382 C   0  0  0  0  0  0
  -3.69108  -2.89356   1.11327 H   0  0  0  0  0  0
  -4.95344  -3.27551  -0.59065 C   0  0  0  0  0  0
  -5.83585  -2.83335  -0.20573 H   0  0  0  0  0  0
  -5.00644  -3.20770  -2.38698 Cl  0  0  0  0  0  0
  -5.22972  -4.74407  -0.19973 C   0  0  0  0  0  0
  -6.74929  -0.84565   1.66097 C   0  0  0  0  0  0
  -7.77410  -1.08832   2.01886 H   0  0  0  0  0  0
  -6.85894  -0.74672  -0.12884 Cl  0  0  0  0  0  0
  -5.89516  -1.93538   2.33640 C   0  0  0  0  0  0
  -2.57950   1.42942   0.80887 C   0  0  0  0  0  0
  -3.08145   2.41490   0.88666 H   0  0  0  0  0  0
  -1.90730   1.71789  -1.00142 Br  0  0  0  0  0  0
  -0.45858   0.54798   2.15933 C   0  0  0  0  0  0
  -0.36919  -0.49290   1.23755 O   0  0  0  0  0  0
   1.87079   1.68108   1.57346 C   0  0  0  0  0  0
   1.83764   3.62705   1.54364 Br  0  0  0  0  0  0
   3.24415   0.90089   1.35165 C   0  0  0  0  0  0
   3.46366   0.43601   2.33324 H   0  0  0  0  0  0
   3.07851  -0.37531   0.36307 C   0  0  0  0  0  0
   2.04448  -0.66416   0.59370 H   0  0  0  0  0  0
   2.94643   0.05047  -1.36569 Cl  0  0  0  0  0  0
   3.78550  -1.80206   0.67606 C   0  0  0  0  0  0
   3.51683  -1.93346   1.74494 H   0  0  0  0  0  0
   3.15976  -3.04687  -0.08353 C   0  0  0  0  0  0
   3.66320  -3.96793   0.28147 H   0  0  0  0  0  0
   3.34367  -3.03759  -1.86799 Cl  0  0  0  0  0  0
   1.68802  -3.29066   0.19955 C   0  0  0  0  0  0
   4.36295   2.05749   1.26633 C   0  0  0  0  0  0
   4.17716   2.57654   2.22105 H   0  0  0  0  0  0
   4.08486   3.43913   0.15177 Cl  0  0  0  0  0  0
   5.86476   1.69094   1.39552 C   0  0  0  0  0  0
   5.85723   0.69717   1.82348 H   0  0  0  0  0  0
   6.62897   2.45292   2.53692 C   0  0  0  0  0  0
   7.68697   2.10591   2.51899 H   0  0  0  0  0  0
   6.61405   4.23166   2.36804 Cl  0  0  0  0  0  0
   6.10426   2.11636   3.95257 C   0  0  0  0  0  0
   5.35723  -1.95840   0.67169 C   0  0  0  0  0  0
   5.81443  -1.05820   1.02557 H   0  0  0  0  0  0
   6.15167  -2.34358  -0.88981 Cl  0  0  0  0  0  0
   5.83965  -2.99955   1.69677 C   0  0  0  0  0  0
   6.66622   1.66878   0.03199 C   0  0  0  0  0  0
   7.57285   1.05608   0.20933 H   0  0  0  0  0  0
   7.26158   3.27040  -0.51152 Cl  0  0  0  0  0  0
   5.90580   1.08301  -1.15693 C   0  0  0  0  0  0
  -2.42502  -3.44241  -0.50215 C   0  0  0  0  0  0
  -2.75396  -4.38760  -0.96164 H   0  0  0  0  0  0
  -1.49557  -2.66580  -1.81667 Cl  0  0  0  0  0  0
  -1.51387  -3.95028   0.61594 C   0  0  0  0  0  0
  -6.62952   3.41593   2.38392 H   0  0  0  0  0  0
  -8.29735   3.26694   3.09317 H   0  0  0  0  0  0
  -6.87231   2.60516   3.99174 H   0  0  0  0  0  0
  -5.30971  -4.84935   0.90093 H   0  0  0  0  0  0
  -6.20594  -5.05588  -0.63306 H   0  0  0  0  0  0
  -4.48627  -5.46736  -0.56864 H   0  0  0  0  0  0
  -6.10697  -1.93756   3.42534 H   0  0  0  0  0  0
  -6.11226  -2.95285   1.97871 H   0  0  0  0  0  0
  -4.83241  -1.71071   2.28939 H   0  0  0  0  0  0
  -0.14244  -0.08647   0.36504 H   0  0  0  0  0  0
   1.05868  -2.48000  -0.21972 H   0  0  0  0  0  0
   1.38949  -4.23985  -0.29373 H   0  0  0  0  0  0
   1.51223  -3.39131   1.28829 H   0  0  0  0  0  0
   6.11552   1.02375   4.13107 H   0  0  0  0  0  0
   6.76175   2.59479   4.71155 H   0  0  0  0  0  0
   5.07818   2.49016   4.13701 H   0  0  0  0  0  0
   5.51576  -4.02673   1.43905 H   0  0  0  0  0  0
   6.95453  -2.99970   1.73634 H   0  0  0  0  0  0
   5.47043  -2.75090   2.71156 H   0  0  0  0  0  0
   5.05977   1.71583  -1.46685 H   0  0  0  0  0  0
   6.54286   0.99372  -2.05537 H   0  0  0  0  0  0
   5.52380   0.09746  -0.91332 H   0  0  0  0  0  0
  -2.10564  -4.53905   1.34967 H   0  0  0  0  0  0
  -0.77087  -4.65872   0.19002 H   0  0  0  0  0  0
  -1.01821  -3.11111   1.13953 H   0  0  0  0  0  0
  -1.50045   1.65072   1.89290 C   0  0  0  0  0  0
  -0.98319   2.59785   1.63107 H   0  0  0  0  0  0
   0.90283   1.07307   2.64190 C   0  0  0  0  0  0
   1.42139   0.29588   3.23463 H   0  0  0  0  0  0
  -1.98920   1.86877   2.86566 H   0  0  0  0  0  0
   0.65681   1.87005   3.38785 H   0  0  0  0  0  0
   1.39628   1.51055   0.58803 H   0  0  0  0  0  0
  -0.61520   0.04650   3.56437 H   0  0  0  0  0  0
  1  2  1  0  0  0
  1  3  1  0  0  0
  3  4  1  0  0  0
  3  5  1  0  0  0
  3  6  1  0  0  0
  7  8  1  0  0  0
  1  7  1  0  0  0
  7  9  1  0  0  0
  7 10  1  0  0  0
 10 11  1  0  0  0
 10 12  1  0  0  0
 12 13  1  0  0  0
 12 14  1  0  0  0
 12 15  1  0  0  0
 15 16  1  0  0  0
 15 17  1  0  0  0
 17 18  1  0  0  0
 17 19  1  0  0  0
 17 20  1  0  0  0
 21 22  1  0  0  0
  1 21  1  0  0  0
 21 23  1  0  0  0
 21 24  1  0  0  0
 25 26  1  0  0  0
 10 25  1  0  0  0
 25 27  1  0  0  0
 28 29  1  0  0  0
 30 31  1  0  0  0
 30 32  1  0  0  0
 32 33  1  0  0  0
 32 34  1  0  0  0
 34 35  1  0  0  0
 34 36  1  0  0  0
 34 37  1  0  0  0
 37 38  1  0  0  0
 37 39  1  0  0  0
 39 40  1  0  0  0
 39 41  1  0  0  0
 39 42  1  0  0  0
 43 44  1  0  0  0
 32 43  1  0  0  0
 43 45  1  0  0  0
 43 46  1  0  0  0
 46 47  1  0  0  0
 46 48  1  0  0  0
 48 49  1  0  0  0
 48 50  1  0  0  0
 48 51  1  0  0  0
 52 53  1  0  0  0
 37 52  1  0  0  0
 52 54  1  0  0  0
 52 55  1  0  0  0
 56 57  1  0  0  0
 46 56  1  0  0  0
 56 58  1  0  0  0
 56 59  1  0  0  0
 60 61  1  0  0  0
 15 60  1  0  0  0
 60 62  1  0  0  0
 60 63  1  0  0  0
  6 64  1  0  0  0
  6 65  1  0  0  0
  6 66  1  0  0  0
 20 67  1  0  0  0
 20 68  1  0  0  0
 20 69  1  0  0  0
 24 70  1  0  0  0
 24 71  1  0  0  0
 24 72  1  0  0  0
 29 73  1  0  0  0
 42 74  1  0  0  0
 42 75  1  0  0  0
 42 76  1  0  0  0
 51 77  1  0  0  0
 51 78  1  0  0  0
 51 79  1  0  0  0
 55 80  1  0  0  0
 55 81  1  0  0  0
 55 82  1  0  0  0
 59 83  1  0  0  0
 59 84  1  0  0  0
 59 85  1  0  0  0
 63 86  1  0  0  0
 63 87  1  0  0  0
 63 88  1  0  0  0
 89 25  1  0  0  0
 89 28  1  0  0  0
 90 89  1  0  0  0
 91 28  1  0  0  0
 91 30  1  0  0  0
 92 91  1  0  0  0
 93 89  1  0  0  0
 94 91  1  0  0  0
 95 30  1  0  0  0
 96 28  1  0  0  0
M  END
