CIP:1P 7P; BB:P-93.5.7.1;
__Jmol-14_06031710133D 1   1.00000     0.00000     0
Jmol version 14.17.2  2017-05-27 15:31 EXTRACT: ({0:38})
 39 41  0  0  0  0              1 V2000
  -2.15088   2.50141  -4.42397 C   0  0  0  0  0  0
  -2.50240   3.62258  -5.22176 C   0  0  0  0  0  0
  -1.67267   1.34878  -5.11433 C   0  0  0  0  0  0
  -2.26221   3.65529  -6.58688 C   0  0  0  0  0  0
  -1.43813   1.40137  -6.49635 C   0  0  0  0  0  0
  -1.69261   2.56206  -7.23698 C   0  0  0  0  0  0
  -2.23000   2.52433  -2.94991 C   0  0  0  0  0  0
  -1.15595   3.03079  -2.14848 C   0  0  0  0  0  0
  -3.34978   1.95359  -2.27713 C   0  0  0  0  0  0
  -1.11231   2.75539  -0.75654 C   0  0  0  0  0  0
  -3.25852   1.68099  -0.90685 C   0  0  0  0  0  0
  -2.14328   2.02622  -0.16250 C   0  0  0  0  0  0
  -4.66861   1.68021  -2.96676 C   0  0  0  0  0  0
  -3.11237   4.74462  -4.68563 O   0  0  0  0  0  0
  -1.34661   0.04319  -4.42147 C   0  0  0  0  0  0
  -0.11689   3.82995  -2.67976 C   0  0  0  0  0  0
   0.89644   4.33474  -1.86744 C   0  0  0  0  0  0
  -0.05385   3.21839   0.04020 C   0  0  0  0  0  0
   0.94323   4.01993  -0.51706 C   0  0  0  0  0  0
  -5.08828   0.34574  -2.71961 O   0  0  0  0  0  0
  -1.41549   2.60044  -8.71337 C   0  0  0  0  0  0
  -2.51933   4.55160  -7.14703 H   0  0  0  0  0  0
  -1.03908   0.52884  -7.00386 H   0  0  0  0  0  0
  -4.08265   1.17922  -0.40226 H   0  0  0  0  0  0
  -2.11409   1.77515   0.89203 H   0  0  0  0  0  0
  -4.64513   1.84097  -4.04875 H   0  0  0  0  0  0
  -5.42375   2.36225  -2.55519 H   0  0  0  0  0  0
  -3.42015   4.51838  -3.79347 H   0  0  0  0  0  0
  -0.26803  -0.05274  -4.28352 H   0  0  0  0  0  0
  -1.70132  -0.80092  -5.01998 H   0  0  0  0  0  0
  -1.82835  -0.05859  -3.44508 H   0  0  0  0  0  0
  -0.10467   4.10373  -3.72739 H   0  0  0  0  0  0
   1.65984   4.98069  -2.29763 H   0  0  0  0  0  0
  -0.00623   2.98614   1.09840 H   0  0  0  0  0  0
   1.74402   4.40263   0.10577 H   0  0  0  0  0  0
  -6.02258   0.29655  -2.99280 H   0  0  0  0  0  0
  -2.32812   2.37063  -9.27559 H   0  0  0  0  0  0
  -0.64310   1.87984  -8.99403 H   0  0  0  0  0  0
  -1.05647   3.59280  -9.01565 H   0  0  0  0  0  0
  1  2  1  0  0  0
  1  3  2  0  0  0
  1  7  1  0  0  0
  2  4  2  0  0  0
  2 14  1  0  0  0
  3  5  1  0  0  0
  3 15  1  0  0  0
  4  6  1  0  0  0
  5  6  2  0  0  0
  6 21  1  0  0  0
  7  8  2  0  0  0
  7  9  1  0  0  0
  8 16  1  0  0  0
  8 10  1  0  0  0
  9 11  2  0  0  0
  9 13  1  0  0  0
 10 12  2  0  0  0
 10 18  1  0  0  0
 11 12  1  0  0  0
 13 20  1  0  0  0
 16 17  2  0  0  0
 17 19  1  0  0  0
 18 19  2  0  0  0
  4 22  1  0  0  0
  5 23  1  0  0  0
 11 24  1  0  0  0
 12 25  1  0  0  0
 13 26  1  0  0  0
 13 27  1  0  0  0
 14 28  1  0  0  0
 15 29  1  0  0  0
 15 30  1  0  0  0
 15 31  1  0  0  0
 16 32  1  0  0  0
 17 33  1  0  0  0
 18 34  1  0  0  0
 19 35  1  0  0  0
 20 36  1  0  0  0
 21 37  1  0  0  0
 21 38  1  0  0  0
 21 39  1  0  0  0
M  END
