CIP:9r 10r 19r 28r; Rule 4b/1a/1b ring test
__Jmol-14_05311708173D 1   1.00000     0.00000     0
Jmol version 14.17.2  2017-05-27 15:31 EXTRACT: ({0:71})
 72 76  0  0  0  0              1 V2000
  13.80559   1.57731   6.79621 C   0  0  0  0  0  0
  14.05926   1.10159   8.10431 C   0  0  0  0  0  0
  12.52917   1.58605   6.28470 C   0  0  0  0  0  0
  13.05613   0.24515   8.67212 C   0  0  0  0  0  0
  11.52135   0.98903   6.99935 C   0  0  0  0  0  0
  11.75127   0.08584   8.08282 C   0  0  0  0  0  0
  14.77529   2.20956   6.04144 O   0  0  0  0  0  0
  10.25611   1.45190   6.68479 O   0  0  0  0  0  0
  10.59090  -0.83787   8.67520 C   0  0  0  0  0  0
  15.11146   1.83174   9.00412 C   0  0  0  0  0  0
  16.95224   1.89331  10.77836 C   0  0  0  0  0  0
  16.21109   1.11621   9.83697 C   0  0  0  0  0  0
  17.96752   1.38802  11.54421 C   0  0  0  0  0  0
  16.53550  -0.27701   9.80180 C   0  0  0  0  0  0
  18.21850   0.03751  11.52997 C   0  0  0  0  0  0
  17.49847  -0.85331  10.69688 C   0  0  0  0  0  0
  16.68870   3.21575  11.07760 O   0  0  0  0  0  0
  19.16172  -0.43586  12.42591 O   0  0  0  0  0  0
  17.76154  -2.36130  10.89247 C   0  0  0  0  0  0
  16.64365  -3.68719  12.72526 C   0  0  0  0  0  0
  16.57773  -3.20597  11.39879 C   0  0  0  0  0  0
  15.62419  -4.38478  13.31815 C   0  0  0  0  0  0
  15.42335  -3.58307  10.62762 C   0  0  0  0  0  0
  14.49720  -4.68719  12.58073 C   0  0  0  0  0  0
  14.36829  -4.35665  11.21590 C   0  0  0  0  0  0
  17.75818  -3.53320  13.53317 O   0  0  0  0  0  0
  13.51126  -5.42630  13.21492 O   0  0  0  0  0  0
  13.25464  -5.10341  10.44806 C   0  0  0  0  0  0
   9.71649  -3.31149   8.84234 C   0  0  0  0  0  0
  10.81372  -2.40118   8.89324 C   0  0  0  0  0  0
   9.83386  -4.67979   8.90594 C   0  0  0  0  0  0
  12.04980  -3.01562   9.31431 C   0  0  0  0  0  0
  11.03033  -5.22102   9.29811 C   0  0  0  0  0  0
  12.15694  -4.42284   9.59637 C   0  0  0  0  0  0
   8.40325  -2.89589   8.89785 O   0  0  0  0  0  0
  11.01289  -6.58517   9.55927 O   0  0  0  0  0  0
  15.67978   3.12481   8.33587 C   0  0  0  0  0  0
  18.75239  -3.06771   9.96362 C   0  0  0  0  0  0
  13.88312  -6.41092   9.91418 C   0  0  0  0  0  0
   9.29754  -0.60686   7.81386 C   0  0  0  0  0  0
  12.30889   2.15546   5.38670 H   0  0  0  0  0  0
  13.24245  -0.19279   9.64431 H   0  0  0  0  0  0
  14.34876   2.88190   5.47962 H   0  0  0  0  0  0
  10.24352   1.84615   5.79824 H   0  0  0  0  0  0
  10.36781  -0.43605   9.66724 H   0  0  0  0  0  0
  14.45131   2.22747   9.78118 H   0  0  0  0  0  0
  18.49629   2.05159  12.22553 H   0  0  0  0  0  0
  15.99772  -0.92581   9.11335 H   0  0  0  0  0  0
  15.72678   3.32495  11.09817 H   0  0  0  0  0  0
  19.78870   0.28988  12.60759 H   0  0  0  0  0  0
  15.73189  -4.70565  14.34434 H   0  0  0  0  0  0
  15.37474  -3.33089   9.57504 H   0  0  0  0  0  0
  17.91070  -2.57421  13.62314 H   0  0  0  0  0  0
  13.87418  -5.78700  14.03759 H   0  0  0  0  0  0
   8.96129  -5.30943   8.79995 H   0  0  0  0  0  0
  12.90458  -2.39245   9.52364 H   0  0  0  0  0  0
   7.85399  -3.50802   8.38561 H   0  0  0  0  0  0
  10.09874  -6.90924   9.56979 H   0  0  0  0  0  0
  18.41285  -2.35643  11.75359 H   0  0  0  0  0  0
  12.59554  -5.46057  11.24565 H   0  0  0  0  0  0
  16.17305   3.82077   9.01399 H   0  0  0  0  0  0
  14.88894   3.73631   7.89156 H   0  0  0  0  0  0
  16.43139   2.89250   7.57810 H   0  0  0  0  0  0
  19.06825  -4.01337  10.42416 H   0  0  0  0  0  0
  19.66509  -2.47000   9.84936 H   0  0  0  0  0  0
  18.36885  -3.30115   8.97526 H   0  0  0  0  0  0
  13.16569  -7.12786   9.51283 H   0  0  0  0  0  0
  14.38232  -6.94799  10.73031 H   0  0  0  0  0  0
  14.62196  -6.23501   9.13234 H   0  0  0  0  0  0
   8.93579   0.41474   7.90408 H   0  0  0  0  0  0
   8.38725  -1.11086   8.08280 H   0  0  0  0  0  0
   9.46538  -0.87057   6.76147 H   0  0  0  0  0  0
  1  2  1  0  0  0
  1  3  2  0  0  0
  1  7  1  0  0  0
  2  4  2  0  0  0
  2 10  1  0  0  0
  3  5  1  0  0  0
  4  6  1  0  0  0
  5  6  2  0  0  0
  5  8  1  0  0  0
  6  9  1  0  0  0
  9 30  1  0  0  0
  9 40  1  0  0  0
 10 12  1  0  0  0
 10 37  1  0  0  0
 11 12  1  0  0  0
 11 13  2  0  0  0
 11 17  1  0  0  0
 12 14  2  0  0  0
 13 15  1  0  0  0
 14 16  1  0  0  0
 15 16  2  0  0  0
 15 18  1  0  0  0
 16 19  1  0  0  0
 19 21  1  0  0  0
 19 38  1  0  0  0
 20 21  1  0  0  0
 20 22  2  0  0  0
 20 26  1  0  0  0
 21 23  2  0  0  0
 22 24  1  0  0  0
 23 25  1  0  0  0
 24 25  2  0  0  0
 24 27  1  0  0  0
 25 28  1  0  0  0
 28 34  1  0  0  0
 28 39  1  0  0  0
 29 30  1  0  0  0
 29 31  2  0  0  0
 29 35  1  0  0  0
 30 32  2  0  0  0
 31 33  1  0  0  0
 32 34  1  0  0  0
 33 34  2  0  0  0
 33 36  1  0  0  0
  3 41  1  0  0  0
  4 42  1  0  0  0
  7 43  1  0  0  0
  8 44  1  0  0  0
  9 45  1  0  0  0
 10 46  1  0  0  0
 13 47  1  0  0  0
 14 48  1  0  0  0
 17 49  1  0  0  0
 18 50  1  0  0  0
 22 51  1  0  0  0
 23 52  1  0  0  0
 26 53  1  0  0  0
 27 54  1  0  0  0
 31 55  1  0  0  0
 32 56  1  0  0  0
 35 57  1  0  0  0
 36 58  1  0  0  0
 59 19  1  0  0  0
 60 28  1  0  0  0
 61 37  1  0  0  0
 62 37  1  0  0  0
 63 37  1  0  0  0
 64 38  1  0  0  0
 65 38  1  0  0  0
 66 38  1  0  0  0
 67 39  1  0  0  0
 68 39  1  0  0  0
 69 39  1  0  0  0
 70 40  1  0  0  0
 71 40  1  0  0  0
 72 40  1  0  0  0
M  END
