CIP:1R 2s 6s 11r 15r 22r; Rule 4c branched RS test
__Jmol-14_05311708113D 1   1.00000     0.00000     0
Jmol version 14.17.2  2017-05-27 15:31 EXTRACT: ({0:58})
 59 61  0  0  0  0              1 V2000
   0.56623  -0.44328   0.19529 C   0  0  0  0  0  0
  -0.78772  -1.11438   0.43481 C   0  0  0  0  0  0
  -1.22451  -0.73216   1.35744 H   0  0  0  0  0  0
  -0.59354  -2.62759   0.55099 C   0  0  0  0  0  0
  -1.94749  -3.29869   0.79051 C   0  0  0  0  0  0
  -2.88252  -2.99299  -0.38133 C   0  0  0  0  0  0
  -3.84711  -3.47106  -0.21075 H   0  0  0  0  0  0
  -2.26943  -3.52949  -1.67652 C   0  0  0  0  0  0
  -3.07681  -1.47973  -0.49759 C   0  0  0  0  0  0
  -1.72276  -0.80869  -0.73703 C   0  0  0  0  0  0
   0.44032   1.06149   0.44167 C   0  0  0  0  0  0
   1.40168   1.45785   0.76861 H   0  0  0  0  0  0
  -0.61058   1.31488   1.52446 C   0  0  0  0  0  0
  -0.73655   2.81979   1.77078 C   0  0  0  0  0  0
  -1.16094   3.51485   0.47550 C   0  0  0  0  0  0
  -2.12230   3.11846   0.14866 H   0  0  0  0  0  0
  -1.28685   5.01961   0.72189 C   0  0  0  0  0  0
  -0.11004   3.26144  -0.60720 C   0  0  0  0  0  0
   0.01587   1.75668  -0.85358 C   0  0  0  0  0  0
   1.60377  -1.03186   1.15352 C   0  0  0  0  0  0
   2.95769  -0.36084   0.91398 C   0  0  0  0  0  0
   3.40012  -0.60599  -0.52998 C   0  0  0  0  0  0
   4.36469  -0.12801  -0.70051 H   0  0  0  0  0  0
   3.52599  -2.11085  -0.77617 C   0  0  0  0  0  0
   2.36261  -0.01732  -1.48821 C   0  0  0  0  0  0
   1.00866  -0.68842  -1.24869 C   0  0  0  0  0  0
  -0.15671  -3.00972  -0.37163 H   0  0  0  0  0  0
   0.07267  -2.84531   1.38587 H   0  0  0  0  0  0
  -1.80911  -4.37669   0.87323 H   0  0  0  0  0  0
  -2.38427  -2.91647   1.71315 H   0  0  0  0  0  0
  -2.13106  -4.60750  -1.59371 H   0  0  0  0  0  0
  -2.93559  -3.31168  -2.51128 H   0  0  0  0  0  0
  -1.30483  -3.05142  -1.84709 H   0  0  0  0  0  0
  -3.74292  -1.26204  -1.33248 H   0  0  0  0  0  0
  -3.51360  -1.09751   0.42504 H   0  0  0  0  0  0
  -1.86114   0.26934  -0.81984 H   0  0  0  0  0  0
  -1.28599  -1.19088  -1.65977 H   0  0  0  0  0  0
  -1.57194   0.91851   1.19753 H   0  0  0  0  0  0
  -0.30823   0.81972   2.44721 H   0  0  0  0  0  0
  -1.48518   3.00020   2.54219 H   0  0  0  0  0  0
   0.22477   3.21606   2.09771 H   0  0  0  0  0  0
  -0.32559   5.41601   1.04883 H   0  0  0  0  0  0
  -1.58927   5.51490  -0.20083 H   0  0  0  0  0  0
  -2.03554   5.20015   1.49331 H   0  0  0  0  0  0
  -0.41241   3.75661  -1.53004 H   0  0  0  0  0  0
   0.85131   3.65782  -0.28036 H   0  0  0  0  0  0
   0.76455   1.57615  -1.62502 H   0  0  0  0  0  0
  -0.94549   1.36031  -1.18052 H   0  0  0  0  0  0
   1.28856  -0.85729   2.18227 H   0  0  0  0  0  0
   1.69345  -2.10393   0.97800 H   0  0  0  0  0  0
   2.86801   0.71123   1.08951 H   0  0  0  0  0  0
   3.69692  -0.78014   1.59666 H   0  0  0  0  0  0
   3.84129  -2.28559  -1.80493 H   0  0  0  0  0  0
   4.26508  -2.53018  -0.09343 H   0  0  0  0  0  0
   2.56136  -2.58892  -0.60565 H   0  0  0  0  0  0
   2.27290   1.05467  -1.31270 H   0  0  0  0  0  0
   2.67780  -0.19198  -2.51698 H   0  0  0  0  0  0
   1.09834  -1.76050  -1.42421 H   0  0  0  0  0  0
   0.26947  -0.26903  -1.93134 H   0  0  0  0  0  0
  1  2  1  0  0  0
  2  3  1  0  0  0
  2  4  1  0  0  0
  4  5  1  0  0  0
  5  6  1  0  0  0
  6  7  1  0  0  0
  6  8  1  0  0  0
  6  9  1  0  0  0
  9 10  1  0  0  0
  2 10  1  0  0  0
  1 11  1  0  0  0
 11 12  1  0  0  0
 11 13  1  0  0  0
 13 14  1  0  0  0
 14 15  1  0  0  0
 15 16  1  0  0  0
 15 17  1  0  0  0
 15 18  1  0  0  0
 18 19  1  0  0  0
 11 19  1  0  0  0
  1 20  1  0  0  0
 20 21  1  0  0  0
 21 22  1  0  0  0
 22 23  1  0  0  0
 22 24  1  0  0  0
 22 25  1  0  0  0
 25 26  1  0  0  0
  1 26  1  0  0  0
  4 27  1  0  0  0
  4 28  1  0  0  0
  5 29  1  0  0  0
  5 30  1  0  0  0
  8 31  1  0  0  0
  8 32  1  0  0  0
  8 33  1  0  0  0
  9 34  1  0  0  0
  9 35  1  0  0  0
 10 36  1  0  0  0
 10 37  1  0  0  0
 13 38  1  0  0  0
 13 39  1  0  0  0
 14 40  1  0  0  0
 14 41  1  0  0  0
 17 42  1  0  0  0
 17 43  1  0  0  0
 17 44  1  0  0  0
 18 45  1  0  0  0
 18 46  1  0  0  0
 19 47  1  0  0  0
 19 48  1  0  0  0
 20 49  1  0  0  0
 20 50  1  0  0  0
 21 51  1  0  0  0
 21 52  1  0  0  0
 24 53  1  0  0  0
 24 54  1  0  0  0
 24 55  1  0  0  0
 25 56  1  0  0  0
 25 57  1  0  0  0
 26 58  1  0  0  0
 26 59  1  0  0  0
M  END
