CIP:1M 7M; BB:P-93.5.7.1;
__Jmol-14_06031710093D 1   1.00000     0.00000     0
Jmol version 14.17.2  2017-05-27 15:31 EXTRACT: ({0:31})
 32 33  0  0  0  0              1 V2000
  -3.58339   0.67830  -2.10742 C   0  0  0  0  0  0
  -3.52015   2.05023  -2.52730 C   0  0  0  0  0  0
  -2.44575   0.21959  -1.36603 C   0  0  0  0  0  0
  -2.42636   2.88352  -2.22269 C   0  0  0  0  0  0
  -1.34998   1.05779  -1.10135 C   0  0  0  0  0  0
  -1.34500   2.38076  -1.51710 C   0  0  0  0  0  0
  -4.69058  -0.24677  -2.49254 C   0  0  0  0  0  0
  -4.46816  -1.28824  -3.44439 C   0  0  0  0  0  0
  -6.01346  -0.20783  -1.92586 C   0  0  0  0  0  0
  -5.49084  -2.15559  -3.85938 C   0  0  0  0  0  0
  -7.03411  -1.07480  -2.37672 C   0  0  0  0  0  0
  -6.77034  -2.03247  -3.34476 C   0  0  0  0  0  0
  -4.57743   2.66414  -3.35458 N   0  3  0  0  0  0
  -4.21889   3.31533  -4.34100 O   0  5  0  0  0  0
  -5.75064   2.51195  -3.00074 O   0  0  0  0  0  0
  -6.37332   0.71324  -0.80827 N   0  3  0  0  0  0
  -5.46366   1.13375  -0.08291 O   0  5  0  0  0  0
  -7.57012   0.97869  -0.64525 O   0  0  0  0  0  0
  -2.28734  -1.18919  -0.88176 C   0  0  0  0  0  0
  -1.24715  -1.82470  -0.87263 O   0  0  0  0  0  0
  -3.42994  -1.70238  -0.39677 O   0  0  0  0  0  0
  -3.11185  -1.53244  -4.01320 C   0  0  0  0  0  0
  -2.34599  -0.68861  -4.44642 O   0  0  0  0  0  0
  -2.76821  -2.82648  -3.88195 O   0  0  0  0  0  0
  -2.40346   3.92028  -2.55271 H   0  0  0  0  0  0
  -0.48321   0.67195  -0.56925 H   0  0  0  0  0  0
  -0.48870   3.01641  -1.30329 H   0  0  0  0  0  0
  -5.28546  -2.93635  -4.58850 H   0  0  0  0  0  0
  -8.03968  -1.01956  -1.96595 H   0  0  0  0  0  0
  -7.55957  -2.70138  -3.68096 H   0  0  0  0  0  0
  -3.16945  -2.59159  -0.07723 H   0  0  0  0  0  0
  -1.82248  -2.86594  -4.13737 H   0  0  0  0  0  0
  1  2  1  0  0  0
  1  3  2  0  0  0
  1  7  1  0  0  0
  2  4  2  0  0  0
  2 13  1  0  0  0
  3  5  1  0  0  0
  3 19  1  0  0  0
  4  6  1  0  0  0
  5  6  2  0  0  0
  7  8  2  0  0  0
  7  9  1  0  0  0
  8 10  1  0  0  0
  8 22  1  0  0  0
  9 11  2  0  0  0
  9 16  1  0  0  0
 10 12  2  0  0  0
 11 12  1  0  0  0
 13 14  1  0  0  0
 13 15  2  0  0  0
 16 17  1  0  0  0
 16 18  2  0  0  0
 19 20  2  0  0  0
 19 21  1  0  0  0
 22 23  2  0  0  0
 22 24  1  0  0  0
  4 25  1  0  0  0
  5 26  1  0  0  0
  6 27  1  0  0  0
 10 28  1  0  0  0
 11 29  1  0  0  0
 12 30  1  0  0  0
 21 31  1  0  0  0
 24 32  1  0  0  0
M  END
