CIP:2Z 3Z 7R 11E 12E; Rule 3 check
__Jmol-14_06031709153D 1   1.00000     0.00000     0
Jmol version 14.17.2  2017-05-27 15:31 EXTRACT: ({0:37})
 38 37  0  0  0  0              1 V2000
  12.89777   2.94871  -1.32121 C   0  0  0  0  0  0
  11.50871   3.06872  -1.83705 C   0  0  0  0  0  0
  10.42912   2.45434  -1.33794 C   0  0  0  0  0  0
   9.10403   2.62905  -2.01676 C   0  0  0  0  0  0
   7.87762   2.22397  -1.22649 C   0  0  0  0  0  0
   6.64098   2.48939  -2.06181 C   0  0  0  0  0  0
   5.53086   1.54838  -1.62370 C   0  0  0  0  0  0
   4.19723   2.23835  -1.76766 C   0  0  0  0  0  0
   3.16467   1.59365  -0.85344 C   0  0  0  0  0  0
   1.82602   1.75749  -1.53768 C   0  0  0  0  0  0
   0.60901   1.14458  -0.91226 C   0  0  0  0  0  0
  -0.61965   1.58476  -1.22247 C   0  0  0  0  0  0
  -0.90389   2.72458  -2.15045 C   0  0  0  0  0  0
   5.52188   0.38253  -2.45889 O   0  0  0  0  0  0
  10.53432   1.42653   0.06700 Cl  0  0  0  0  0  0
   0.79943  -0.21390   0.14459 Cl  0  0  0  0  0  0
  13.14944   1.91129  -1.07403 H   0  0  0  0  0  0
  13.03448   3.58130  -0.43850 H   0  0  0  0  0  0
  13.60145   3.27615  -2.08724 H   0  0  0  0  0  0
  11.38532   3.69454  -2.71813 H   0  0  0  0  0  0
   9.12295   2.03389  -2.93912 H   0  0  0  0  0  0
   8.98645   3.67409  -2.32255 H   0  0  0  0  0  0
   7.81020   2.78855  -0.28595 H   0  0  0  0  0  0
   7.93896   1.16099  -0.96241 H   0  0  0  0  0  0
   6.84373   2.34879  -3.13190 H   0  0  0  0  0  0
   6.36809   3.53952  -1.92619 H   0  0  0  0  0  0
   5.67769   1.22126  -0.58535 H   0  0  0  0  0  0
   3.89030   2.18537  -2.82256 H   0  0  0  0  0  0
   4.25686   3.29829  -1.50764 H   0  0  0  0  0  0
   3.17257   2.09633   0.12121 H   0  0  0  0  0  0
   3.39643   0.54074  -0.67274 H   0  0  0  0  0  0
   1.90075   1.32902  -2.54468 H   0  0  0  0  0  0
   1.67394   2.83429  -1.65949 H   0  0  0  0  0  0
  -1.47760   1.06838  -0.81231 H   0  0  0  0  0  0
  -0.15559   2.82789  -2.94400 H   0  0  0  0  0  0
  -0.94950   3.66500  -1.59178 H   0  0  0  0  0  0
  -1.86440   2.57365  -2.64868 H   0  0  0  0  0  0
   6.43482   0.13980  -2.68238 H   0  0  0  0  0  0
  1  2  1  0  0  0
  2  3  2  0  0  0
  3  4  1  0  0  0
  3 15  1  0  0  0
  4  5  1  0  0  0
  5  6  1  0  0  0
  6  7  1  0  0  0
  7  8  1  0  0  0
  7 14  1  0  0  0
  8  9  1  0  0  0
  9 10  1  0  0  0
 10 11  1  0  0  0
 11 12  2  0  0  0
 11 16  1  0  0  0
 12 13  1  0  0  0
  1 17  1  0  0  0
  1 18  1  0  0  0
  1 19  1  0  0  0
  2 20  1  0  0  0
  4 21  1  0  0  0
  4 22  1  0  0  0
  5 23  1  0  0  0
  5 24  1  0  0  0
  6 25  1  0  0  0
  6 26  1  0  0  0
  7 27  1  0  0  0
  8 28  1  0  0  0
  8 29  1  0  0  0
  9 30  1  0  0  0
  9 31  1  0  0  0
 10 32  1  0  0  0
 10 33  1  0  0  0
 12 34  1  0  0  0
 13 35  1  0  0  0
 13 36  1  0  0  0
 13 37  1  0  0  0
 14 38  1  0  0  0
M  END
