CIP:19P 20P; helicene
__Jmol-14_06031709163D 1   1.00000     0.00000     0
Jmol version 14.17.2  2017-05-27 15:31 EXTRACT: ({0:41})
 42 47  0  0  0  0              1 V2000
   4.19641  -2.96037   2.74986 C   0  0  0  0  0  0
   3.57916  -1.75433   2.51234 C   0  0  0  0  0  0
   3.52585  -4.24114   3.13926 C   0  0  0  0  0  0
   2.19168  -1.38655   2.90656 C   0  0  0  0  0  0
   2.16947  -4.68381   2.68422 C   0  0  0  0  0  0
   5.66826  -2.96292   2.73281 C   0  0  0  0  0  0
   4.32500  -0.75426   1.73096 C   0  0  0  0  0  0
   4.24683  -5.11226   3.90756 C   0  0  0  0  0  0
   1.56293  -0.37017   2.23983 C   0  0  0  0  0  0
   1.54856  -5.72866   3.30291 C   0  0  0  0  0  0
   3.59990   0.28370   1.03794 C   0  0  0  0  0  0
   3.57014  -6.23487   4.52929 C   0  0  0  0  0  0
   5.68174  -4.93171   4.10351 C   0  0  0  0  0  0
   5.65084  -0.87266   1.54821 C   0  0  0  0  0  0
   6.35655  -1.96164   2.15871 C   0  0  0  0  0  0
   6.37573  -3.96064   3.49595 C   0  0  0  0  0  0
   2.28331   0.41957   1.24786 C   0  0  0  0  0  0
   2.27982  -6.49018   4.29091 C   0  0  0  0  0  0
   1.48457  -1.95560   4.06306 C   0  0  0  0  0  0
   1.47781  -4.10824   1.52153 C   0  0  0  0  0  0
   0.16282  -0.07795   2.53652 C   0  0  0  0  0  0
   0.17615  -6.07763   2.94749 C   0  0  0  0  0  0
   0.20921  -1.65103   4.34651 C   0  0  0  0  0  0
   0.22653  -4.45432   1.18309 C   0  0  0  0  0  0
  -0.49455  -0.70410   3.52296 C   0  0  0  0  0  0
  -0.46810  -5.45300   1.95187 C   0  0  0  0  0  0
   4.10945   0.91781   0.31878 H   0  0  0  0  0  0
   4.11874  -6.85076   5.23446 H   0  0  0  0  0  0
   6.21125  -5.65875   4.70968 H   0  0  0  0  0  0
   6.22323  -0.17057   0.94910 H   0  0  0  0  0  0
   7.44153  -1.91445   2.17411 H   0  0  0  0  0  0
   7.45069  -3.88597   3.63141 H   0  0  0  0  0  0
   1.73550   1.18284   0.70603 H   0  0  0  0  0  0
   1.78630  -7.31900   4.78645 H   0  0  0  0  0  0
   2.01843  -2.62894   4.72343 H   0  0  0  0  0  0
   2.00414  -3.39124   0.90248 H   0  0  0  0  0  0
  -0.35736   0.65073   1.92397 H   0  0  0  0  0  0
  -0.33185  -6.84469   3.52163 H   0  0  0  0  0  0
  -0.29766  -2.08484   5.20141 H   0  0  0  0  0  0
  -0.26729  -4.01321   0.32413 H   0  0  0  0  0  0
  -1.53861  -0.49918   3.73179 H   0  0  0  0  0  0
  -1.49365  -5.69602   1.69561 H   0  0  0  0  0  0
  1  2  2  0  0  0
  1  3  1  0  0  0
  1  6  1  0  0  0
  2  4  1  0  0  0
  2  7  1  0  0  0
  3  5  1  0  0  0
  3  8  2  0  0  0
  4  9  2  0  0  0
  4 19  1  0  0  0
  5 10  2  0  0  0
  5 20  1  0  0  0
  6 15  2  0  0  0
  6 16  1  0  0  0
  7 11  1  0  0  0
  7 14  2  0  0  0
  8 12  1  0  0  0
  8 13  1  0  0  0
  9 17  1  0  0  0
  9 21  1  0  0  0
 10 18  1  0  0  0
 10 22  1  0  0  0
 11 17  2  0  0  0
 12 18  2  0  0  0
 13 16  2  0  0  0
 14 15  1  0  0  0
 19 23  2  0  0  0
 20 24  2  0  0  0
 21 25  2  0  0  0
 22 26  2  0  0  0
 25 23  1  0  0  0
 26 24  1  0  0  0
 11 27  1  0  0  0
 12 28  1  0  0  0
 13 29  1  0  0  0
 14 30  1  0  0  0
 15 31  1  0  0  0
 16 32  1  0  0  0
 17 33  1  0  0  0
 18 34  1  0  0  0
 19 35  1  0  0  0
 20 36  1  0  0  0
 21 37  1  0  0  0
 22 38  1  0  0  0
 23 39  1  0  0  0
 24 40  1  0  0  0
 25 41  1  0  0  0
 26 42  1  0  0  0
M  END
