(2R,3r,4S)-2,3,4-trichloropentane
  ACD/Labs07271016393D

 17 16  0  0  0  0  0  0  0  0  1 V2000
    7.0076  -11.3765   -1.3272 C   0  0  0  0  0  0  0  0  0  0  0  0
    8.2615  -10.5866   -1.7020 C   0  0  0  0  0  0  0  0  0  0  0  0
    9.4801  -11.5083   -1.6638 C   0  0  0  0  0  0  0  0  0  0  0  0
   10.7347  -10.7164   -2.0325 C   0  0  0  0  0  0  0  0  0  0  0  0
   11.9430  -11.6527   -2.0659 C   0  0  0  0  0  0  0  0  0  0  0  0
    8.4883   -9.2650   -0.5524 Cl  0  0  0  0  0  0  0  0  0  0  0  0
    9.6614  -12.1784   -0.0351 Cl  0  0  0  0  0  0  0  0  0  0  0  0
   11.0054   -9.4517   -0.8294 Cl  0  0  0  0  0  0  0  0  0  0  0  0
    8.1434  -10.1751   -2.7315 H   0  0  0  0  0  0  0  0  0  0  0  0
   10.5973  -10.2570   -3.0389 H   0  0  0  0  0  0  0  0  0  0  0  0
    6.3837  -11.5321   -2.2333 H   0  0  0  0  0  0  0  0  0  0  0  0
    7.3029  -12.3619   -0.9073 H   0  0  0  0  0  0  0  0  0  0  0  0
    6.4255  -10.8089   -0.5699 H   0  0  0  0  0  0  0  0  0  0  0  0
    9.3310  -12.2232   -2.5010 H   0  0  0  0  0  0  0  0  0  0  0  0
   11.9676  -12.1903   -3.0379 H   0  0  0  0  0  0  0  0  0  0  0  0
   12.8746  -11.0588   -1.9476 H   0  0  0  0  0  0  0  0  0  0  0  0
   11.8636  -12.3889   -1.2375 H   0  0  0  0  0  0  0  0  0  0  0  0
  1  2  1  0  0  0  0
  2  3  1  0  0  0  0
  3  4  1  0  0  0  0
  4  5  1  0  0  0  0
  2  6  1  0  0  0  0
  3  7  1  0  0  0  0
  4  8  1  0  0  0  0
  9  2  1  0  0  0  0
 10  4  1  0  0  0  0
 11  1  1  0  0  0  0
 12  1  1  0  0  0  0
 13  1  1  0  0  0  0
 14  3  1  0  0  0  0
 15  5  1  0  0  0  0
 16  5  1  0  0  0  0
 17  5  1  0  0  0  0
M  END
