c:/temp/p-9-examples-stereo.sdf
__Jmol-14_05041701523D 1   1.00000     0.00000     0
Jmol version 14.15.3  2017-04-30 15:40 EXTRACT: ({0:43})
 44 45  0  0  0  0              1 V2000
   3.39532  -1.52471   0.55678 C   0  0  0  0  0  0
   2.58193  -2.47169  -0.37045 C   0  0  0  0  0  0
   1.62701  -3.16475   0.55872 C   0  0  0  0  0  0
   0.39816  -2.73171   0.84605 C   0  0  0  0  0  0
  -0.35523  -1.68057   0.10312 C   0  0  0  0  0  0
  -0.03218  -0.29797   0.64543 C   0  0  0  0  0  0
   1.33547   0.25703   0.21090 C   0  0  0  0  0  0
   2.59162  -0.22526   0.97201 C   0  0  0  0  0  0
   4.92231  -1.24734   0.22925 C   0  0  0  0  0  0
   5.56472  -0.69298   1.53649 C   0  0  0  0  0  0
   6.91825   0.01492   1.42740 C   0  0  0  0  0  0
   8.05460  -0.78612   2.07526 C   0  0  0  0  0  0
   8.93346  -1.54338   1.08566 C   0  0  0  0  0  0
   8.21548  -2.14043  -0.12628 C   0  0  0  0  0  0
   6.99828  -2.99708   0.23021 C   0  0  0  0  0  0
   5.65630  -2.51790  -0.34885 C   0  0  0  0  0  0
   3.17182  -3.24602  -0.86564 H   0  0  0  0  0  0
   2.09171  -1.93758  -1.18538 H   0  0  0  0  0  0
   2.06329  -3.92025   1.20886 H   0  0  0  0  0  0
  -0.05178  -3.06973   1.77202 H   0  0  0  0  0  0
  -1.42282  -1.88537   0.22312 H   0  0  0  0  0  0
  -0.16625  -1.73540  -0.97715 H   0  0  0  0  0  0
  -0.12387  -0.28043   1.73987 H   0  0  0  0  0  0
  -0.80617   0.38483   0.27228 H   0  0  0  0  0  0
   1.27118   1.33318   0.39022 H   0  0  0  0  0  0
   1.46883   0.16303  -0.87201 H   0  0  0  0  0  0
   3.27176   0.62551   0.91921 H   0  0  0  0  0  0
   2.33114  -0.31025   2.03561 H   0  0  0  0  0  0
   5.59435  -1.48457   2.28719 H   0  0  0  0  0  0
   4.90189   0.05165   1.98316 H   0  0  0  0  0  0
   6.83479   0.94817   1.98930 H   0  0  0  0  0  0
   7.14246   0.32354   0.40469 H   0  0  0  0  0  0
   7.66979  -1.47576   2.83105 H   0  0  0  0  0  0
   8.69923  -0.09349   2.63117 H   0  0  0  0  0  0
   9.47060  -2.32733   1.62523 H   0  0  0  0  0  0
   9.70694  -0.85863   0.71334 H   0  0  0  0  0  0
   8.94133  -2.76485  -0.65423 H   0  0  0  0  0  0
   7.94560  -1.35479  -0.83469 H   0  0  0  0  0  0
   6.91195  -3.16665   1.30333 H   0  0  0  0  0  0
   7.18321  -3.99478  -0.18889 H   0  0  0  0  0  0
   5.76408  -2.39060  -1.43050 H   0  0  0  0  0  0
   5.01650  -3.38732  -0.23091 H   0  0  0  0  0  0
   3.48812  -2.07751   1.49681 H   0  0  0  0  0  0
   4.96412  -0.46737  -0.53708 H   0  0  0  0  0  0
  1  2  1  0  0  0
  1  8  1  0  0  0
  1  9  1  0  0  0
  2  3  1  0  0  0
  3  4  2  0  0  0
  4  5  1  0  0  0
  5  6  1  0  0  0
  6  7  1  0  0  0
  7  8  1  0  0  0
  9 10  1  0  0  0
  9 16  1  0  0  0
 10 11  1  0  0  0
 11 12  1  0  0  0
 12 13  1  0  0  0
 13 14  1  0  0  0
 14 15  1  0  0  0
 15 16  1  0  0  0
  2 17  1  0  0  0
  2 18  1  0  0  0
  3 19  1  0  0  0
  4 20  1  0  0  0
  5 21  1  0  0  0
  5 22  1  0  0  0
  6 23  1  0  0  0
  6 24  1  0  0  0
  7 25  1  0  0  0
  7 26  1  0  0  0
  8 27  1  0  0  0
  8 28  1  0  0  0
 10 29  1  0  0  0
 10 30  1  0  0  0
 11 31  1  0  0  0
 11 32  1  0  0  0
 12 33  1  0  0  0
 12 34  1  0  0  0
 13 35  1  0  0  0
 13 36  1  0  0  0
 14 37  1  0  0  0
 14 38  1  0  0  0
 15 39  1  0  0  0
 15 40  1  0  0  0
 16 41  1  0  0  0
 16 42  1  0  0  0
 43  1  1  0  0  0
 44  9  1  0  0  0
M  END
