c:/temp/p-9-examples-stereo.sdf
__Jmol-14_05041702083D 1   1.00000     0.00000     0
Jmol version 14.15.3  2017-04-30 15:40 EXTRACT: ({0:8 11 13:15 17:28 32 33 36 37 41 42})
 31 31  0  0  0  0              1 V2000
   3.65133  -2.41441  -0.63662 C   0  0  0  0  0  0
   3.25921  -3.88010  -0.37990 C   0  0  0  0  0  0
   2.98973  -1.52349   0.42585 C   0  0  0  0  0  0
   1.74420  -4.08154  -0.30996 C   0  0  0  0  0  0
   1.47554  -1.65068   0.39406 C   0  0  0  0  0  0
   0.99161  -3.09140   0.59692 C   0  0  0  0  0  0
   1.04696  -3.49815   2.07184 C   0  0  0  0  0  0
   3.21388  -2.13026  -1.60459 H   0  0  0  0  0  0
   5.19308  -2.26121  -0.79757 C   0  0  0  0  0  0
   7.35131  -0.98007  -0.39590 C   0  0  0  0  0  0
   5.86261  -1.06873  -0.08951 C   0  0  0  0  0  0
   5.41158  -2.19183  -1.87084 H   0  0  0  0  0  0
   5.74152  -1.23200   1.32069 O   0  0  0  0  0  0
   3.71173  -4.22134   0.56228 H   0  0  0  0  0  0
   3.66851  -4.52209  -1.16525 H   0  0  0  0  0  0
   3.24184  -0.47058   0.26003 H   0  0  0  0  0  0
   3.34731  -1.78847   1.42905 H   0  0  0  0  0  0
   1.52641  -5.11500  -0.00915 H   0  0  0  0  0  0
   1.34691  -3.98184  -1.32751 H   0  0  0  0  0  0
   1.11645  -1.29162  -0.57902 H   0  0  0  0  0  0
   1.03353  -0.98846   1.14106 H   0  0  0  0  0  0
  -0.06380  -3.12182   0.31495 H   0  0  0  0  0  0
   0.51421  -2.77445   2.69469 H   0  0  0  0  0  0
   2.07022  -3.57499   2.44316 H   0  0  0  0  0  0
   0.56215  -4.47059   2.22014 H   0  0  0  0  0  0
   7.53327  -0.78087  -1.45759 H   0  0  0  0  0  0
   7.81707  -0.17815   0.19053 H   0  0  0  0  0  0
   5.38284  -0.12789  -0.38719 H   0  0  0  0  0  0
   5.41624  -0.38828   1.68724 H   0  0  0  0  0  0
   5.68852  -3.18243  -0.46701 H   0  0  0  0  0  0
   7.86728  -1.90361  -0.12129 H   0  0  0  0  0  0
  1  2  1  0  0  0
  1  3  1  0  0  0
  1  8  1  0  0  0
  1  9  1  0  0  0
  2  4  1  0  0  0
  3  5  1  0  0  0
  4  6  1  0  0  0
  5  6  1  0  0  0
  6  7  1  0  0  0
  9 11  1  0  0  0
  9 12  1  0  0  0
 10 11  1  0  0  0
 11 13  1  0  0  0
  2 14  1  0  0  0
  2 15  1  0  0  0
  3 16  1  0  0  0
  3 17  1  0  0  0
  4 18  1  0  0  0
  4 19  1  0  0  0
  5 20  1  0  0  0
  5 21  1  0  0  0
  6 22  1  0  0  0
  7 23  1  0  0  0
  7 24  1  0  0  0
  7 25  1  0  0  0
 10 26  1  0  0  0
 10 27  1  0  0  0
 11 28  1  0  0  0
 13 29  1  0  0  0
 30  9  1  0  0  0
 31 10  1  0  0  0
M  END
