c:/temp/p-9-examples-stereo.sdf
__Jmol-14_05041701343D 1   1.00000     0.00000     0
Jmol version 14.15.3  2017-04-30 15:40 EXTRACT: ({0:29})
 30 31  0  0  0  0              1 V2000
   3.50208  -3.01026  -0.89589 C   0  0  0  0  0  0
   3.27156  -2.05337  -2.10035 C   0  0  0  0  0  0
   4.97978  -3.18986  -0.82208 C   0  0  0  0  0  0
   4.70883  -1.83647  -2.69423 C   0  0  0  0  0  0
   5.63189  -2.55343  -1.78675 C   0  0  0  0  0  0
   2.44287  -2.73306  -3.22801 C   0  0  0  0  0  0
   2.73898  -0.68386  -1.65079 C   0  0  0  0  0  0
   1.50873  -0.22679  -1.34483 C   0  0  0  0  0  0
   1.00849  -3.19683  -2.93481 C   0  0  0  0  0  0
   0.21478  -0.95571  -1.20026 C   0  0  0  0  0  0
  -0.04737  -2.21944  -3.46854 C   0  0  0  0  0  0
  -0.57382  -1.16363  -2.49185 C   0  0  0  0  0  0
   3.03367  -3.98792  -1.03945 H   0  0  0  0  0  0
   3.12951  -2.60273   0.04660 H   0  0  0  0  0  0
   5.46208  -3.79180  -0.05465 H   0  0  0  0  0  0
   5.01073  -0.78829  -2.75866 H   0  0  0  0  0  0
   4.82265  -2.24719  -3.70103 H   0  0  0  0  0  0
   6.71240  -2.56269  -1.91509 H   0  0  0  0  0  0
   2.98967  -3.63438  -3.53707 H   0  0  0  0  0  0
   2.44878  -2.09440  -4.11400 H   0  0  0  0  0  0
   3.50529   0.07542  -1.54885 H   0  0  0  0  0  0
   1.44497   0.82188  -1.07977 H   0  0  0  0  0  0
   0.85366  -3.48017  -1.89357 H   0  0  0  0  0  0
   0.86738  -4.12999  -3.49373 H   0  0  0  0  0  0
  -0.41206  -0.34652  -0.53643 H   0  0  0  0  0  0
   0.35139  -1.88842  -0.64541 H   0  0  0  0  0  0
  -0.91201  -2.80788  -3.80441 H   0  0  0  0  0  0
   0.31210  -1.72546  -4.37487 H   0  0  0  0  0  0
  -0.68768  -0.20941  -3.02460 H   0  0  0  0  0  0
  -1.58971  -1.45409  -2.21003 H   0  0  0  0  0  0
  1  2  1  0  0  0
  1  3  1  0  0  0
  2  4  1  0  0  0
  2  6  1  0  0  0
  2  7  1  0  0  0
  3  5  2  0  0  0
  4  5  1  0  0  0
  6  9  1  0  0  0
  7  8  2  0  0  0
  8 10  1  0  0  0
  9 11  1  0  0  0
 10 12  1  0  0  0
 11 12  1  0  0  0
  1 13  1  0  0  0
  1 14  1  0  0  0
  3 15  1  0  0  0
  4 16  1  0  0  0
  4 17  1  0  0  0
  5 18  1  0  0  0
  6 19  1  0  0  0
  6 20  1  0  0  0
  7 21  1  0  0  0
  8 22  1  0  0  0
  9 23  1  0  0  0
  9 24  1  0  0  0
 10 25  1  0  0  0
 10 26  1  0  0  0
 11 27  1  0  0  0
 11 28  1  0  0  0
 12 29  1  0  0  0
 12 30  1  0  0  0
M  END
