c:/temp/p-9-examples-stereo.sdf
__Jmol-14_05061700023D 1   1.00000     0.00000     0
Jmol version 14.15.3  2017-04-30 15:40 EXTRACT: ({0:28})
 29 31  0  0  0  0              1 V2000
   1.30668  -4.06181  -0.14244 C   0  0  0  0  0  0
   2.78419  -4.02218   0.30841 C   0  0  0  0  0  0
   3.07639  -2.65799   0.97550 C   0  0  0  0  0  0
   3.68961  -4.17962  -0.92987 C   0  0  0  0  0  0
   1.04209  -2.92435  -1.14310 C   0  0  0  0  0  0
   1.31735  -1.57501  -0.45758 C   0  0  0  0  0  0
   1.95528  -3.09176  -2.36974 C   0  0  0  0  0  0
   2.79168  -1.51869  -0.02145 C   0  0  0  0  0  0
   3.42471  -3.04235  -1.92904 C   0  0  0  0  0  0
   3.69924  -1.69155  -1.24867 C   0  0  0  0  0  0
   3.07252  -0.24998   0.57886 O   0  0  0  0  0  0
   3.01624  -5.11077   1.26840 N   0  0  0  0  0  0
  -0.85025  -2.98784  -1.72180 Br  0  0  0  0  0  0
   1.07242  -5.02910  -0.60096 H   0  0  0  0  0  0
   0.64154  -3.97049   0.72188 H   0  0  0  0  0  0
   4.11973  -2.60153   1.32044 H   0  0  0  0  0  0
   2.47060  -2.52111   1.87756 H   0  0  0  0  0  0
   4.74873  -4.17186  -0.63783 H   0  0  0  0  0  0
   3.51601  -5.14907  -1.41863 H   0  0  0  0  0  0
   1.09508  -0.73655  -1.13217 H   0  0  0  0  0  0
   0.65998  -1.42510   0.40294 H   0  0  0  0  0  0
   1.75190  -4.04313  -2.88010 H   0  0  0  0  0  0
   1.76287  -2.30711  -3.10740 H   0  0  0  0  0  0
   4.07502  -3.15572  -2.79948 H   0  0  0  0  0  0
   3.53958  -0.86706  -1.95839 H   0  0  0  0  0  0
   4.75134  -1.61773  -0.95670 H   0  0  0  0  0  0
   2.34646  -0.02503   1.18277 H   0  0  0  0  0  0
   4.01937  -5.24428   1.41859 H   0  0  0  0  0  0
   2.66700  -5.99491   0.90434 H   0  0  0  0  0  0
  1  2  1  0  0  0
  1  5  1  0  0  0
  2  3  1  0  0  0
  2  4  1  0  0  0
  2 12  1  0  0  0
  8  3  1  0  0  0
  9  4  1  0  0  0
  5  6  1  0  0  0
  5  7  1  0  0  0
  5 13  1  0  0  0
  6  8  1  0  0  0
  7  9  1  0  0  0
  8 10  1  0  0  0
  8 11  1  0  0  0
  9 10  1  0  0  0
  1 14  1  0  0  0
  1 15  1  0  0  0
  3 16  1  0  0  0
  3 17  1  0  0  0
  4 18  1  0  0  0
  4 19  1  0  0  0
  6 20  1  0  0  0
  6 21  1  0  0  0
  7 22  1  0  0  0
  7 23  1  0  0  0
  9 24  1  0  0  0
 10 25  1  0  0  0
 10 26  1  0  0  0
 11 27  1  0  0  0
 12 28  1  0  0  0
 12 29  1  0  0  0
M  END
