c:/jmol-dev/bobtest/cip/testSuites/3D/test218.mol
__Jmol-14_05191711293D 1   1.00000     0.00000     0
Jmol version 14.15.5  2017-05-17 23:50 EXTRACT: ({0:31})
 32 33  0  0  0  0              1 V2000
  -2.61367  -1.44966   2.96803 C   0  0  0  0  0  0
  -3.54319  -2.29471   2.27206 C   0  0  0  0  0  0
  -1.61137  -0.84376   2.14184 C   0  0  0  0  0  0
  -3.47941  -2.50213   0.88050 C   0  0  0  0  0  0
  -1.54524  -1.09008   0.76043 C   0  0  0  0  0  0
  -2.47715  -1.90379   0.13390 C   0  0  0  0  0  0
  -2.60850  -1.28428   4.45214 C   0  0  0  0  0  0
  -1.57534  -1.87188   5.24426 C   0  0  0  0  0  0
  -3.57445  -0.50763   5.18454 C   0  0  0  0  0  0
  -1.55400  -1.76976   6.64407 C   0  0  0  0  0  0
  -3.54784  -0.43920   6.59565 C   0  0  0  0  0  0
  -2.54790  -1.07718   7.31462 C   0  0  0  0  0  0
  -4.59797  -3.04639   2.98027 N   0  3  0  0  0  0
  -4.73034  -4.24119   2.69646 O   0  5  0  0  0  0
  -5.29821  -2.43468   3.79284 O   0  0  0  0  0  0
  -4.62798   0.29976   4.50257 N   0  3  0  0  0  0
  -4.42782   0.65192   3.33365 O   0  5  0  0  0  0
  -5.63195   0.60455   5.15719 O   0  0  0  0  0  0
  -0.51621   0.02831   2.67512 C   0  0  0  0  0  0
   0.63974   0.03389   2.28823 O   0  0  0  0  0  0
  -0.94322   0.87200   3.62904 O   0  0  0  0  0  0
  -0.43446  -2.59076   4.60837 C   0  0  0  0  0  0
  -0.50736  -3.41808   3.71588 O   0  0  0  0  0  0
   0.73878  -2.11940   5.06793 O   0  0  0  0  0  0
  -4.19672  -3.14750   0.37724 H   0  0  0  0  0  0
  -0.75069  -0.64699   0.16407 H   0  0  0  0  0  0
  -2.41189  -2.08357  -0.93683 H   0  0  0  0  0  0
  -0.75222  -2.23238   7.21548 H   0  0  0  0  0  0
  -4.29881   0.12438   7.14463 H   0  0  0  0  0  0
  -2.52989  -1.01326   8.40041 H   0  0  0  0  0  0
  -0.14801   1.40309   3.84410 H   0  0  0  0  0  0
   1.42034  -2.53244   4.49691 H   0  0  0  0  0  0
  1  2  1  0  0  0
  1  3  2  0  0  0
  1  7  1  0  0  0
  2  4  2  0  0  0
  2 13  1  0  0  0
  3  5  1  0  0  0
  3 19  1  0  0  0
  4  6  1  0  0  0
  5  6  2  0  0  0
  7  8  2  0  0  0
  7  9  1  0  0  0
  8 10  1  0  0  0
  8 22  1  0  0  0
  9 11  2  0  0  0
  9 16  1  0  0  0
 10 12  2  0  0  0
 11 12  1  0  0  0
 13 14  1  0  0  0
 13 15  2  0  0  0
 16 17  1  0  0  0
 16 18  2  0  0  0
 19 20  2  0  0  0
 19 21  1  0  0  0
 22 23  2  0  0  0
 22 24  1  0  0  0
  4 25  1  0  0  0
  5 26  1  0  0  0
  6 27  1  0  0  0
 10 28  1  0  0  0
 11 29  1  0  0  0
 12 30  1  0  0  0
 21 31  1  0  0  0
 24 32  1  0  0  0
M  END
