c:/temp/p-9-examples-stereo.sdf
__Jmol-14_05061712333D 1   1.00000     0.00000     0
Jmol version 14.15.3  2017-04-30 15:40 EXTRACT: ({0:15})
 16 17  0  0  0  0              1 V2000
  -0.73780   0.72134  -1.25624 C   0  0  0  0  0  0
  -1.44734   0.46132  -2.57827 C   0  0  0  0  0  0
  -2.78920   0.55875  -2.47389 C   0  0  0  0  0  0
  -3.26575   0.80541  -1.04329 C   0  0  0  0  0  0
  -2.60333  -0.23462  -0.12602 C   0  0  0  0  0  0
  -1.26258  -0.29511  -0.25997 C   0  0  0  0  0  0
  -1.27273   2.08450  -0.78410 C   0  0  0  0  0  0
  -2.62157   2.12673  -0.68282 C   0  0  0  0  0  0
   0.34885   0.69787  -1.34825 H   0  0  0  0  0  0
  -0.91701   0.42444  -3.52575 H   0  0  0  0  0  0
  -3.42055   0.71717  -3.34161 H   0  0  0  0  0  0
  -4.35403   0.80750  -0.95424 H   0  0  0  0  0  0
  -3.14090  -0.77269   0.64902 H   0  0  0  0  0  0
  -0.61197  -0.91434   0.35141 H   0  0  0  0  0  0
  -0.62499   2.93670  -0.62086 H   0  0  0  0  0  0
  -3.20144   3.01347  -0.45448 H   0  0  0  0  0  0
  1  2  1  0  0  0
  1  6  1  0  0  0
  1  7  1  0  0  0
  2  3  2  0  0  0
  3  4  1  0  0  0
  4  5  1  0  0  0
  4  8  1  0  0  0
  5  6  2  0  0  0
  7  8  2  0  0  0
  1  9  1  0  0  0
  2 10  1  0  0  0
  3 11  1  0  0  0
  4 12  1  0  0  0
  5 13  1  0  0  0
  6 14  1  0  0  0
  7 15  1  0  0  0
  8 16  1  0  0  0
M  END
