c:/jmol-dev/bobtest/cip/RS/(1s)-1-{[(1R,2R)-1,2,-dichloropropyl][(1S,2R)-1,2-dichloropropyl]amino}-1-{[(1R,2S)-1,2,-dichloropropyl][(1S,2S)-1,2-dichloropropyl]amino}-methan-1-ol_3d.sdf
__Jmol-14_04241723553D 1   1.00000     0.00000     0
Jmol version 14.15.1  2017-04-24 11:10 EXTRACT: ({0:27 29:47 49 50 54:56 58:60 64:66})
 58 57  0  0  0  0              1 V2000
   2.45226  -6.01197  -0.53161 C   0  0  0  0  0  0
   1.13994  -6.75143  -0.82961 C   0  0  0  0  0  0
   0.22342  -6.08027  -1.92268 C   0  0  0  0  0  0
  -0.12193  -4.61863  -1.78310 N   0  0  0  0  0  0
  -2.27750  -2.23775  -0.51482 C   0  0  0  0  0  0
  -1.20700   0.75908  -0.36259 N   0  0  0  0  0  0
  -0.12016   1.36651   0.49071 C   0  0  0  0  0  0
   0.45560   0.56005   1.71488 C   0  0  0  0  0  0
  -0.62994  -0.09330   2.56730 C   0  0  0  0  0  0
  -3.31389  -3.11664  -0.93634 O   0  0  0  0  0  0
  -2.14794   1.80119  -0.93153 C   0  0  0  0  0  0
  -3.65215   1.47382  -0.69830 C   0  0  0  0  0  0
  -3.96153   1.28103   0.78615 C   0  0  0  0  0  0
   0.93574  -3.83744  -2.53564 C   0  0  0  0  0  0
   0.49234  -3.25591  -3.92157 C   0  0  0  0  0  0
  -0.41712  -4.20114  -4.70914 C   0  0  0  0  0  0
  -4.72005   2.79177  -1.29885 Cl  0  0  0  0  0  0
   1.92186  -2.88412  -4.94402 Cl  0  0  0  0  0  0
   1.57442  -8.42471  -1.31394 Cl  0  0  0  0  0  0
  -1.34005  -6.93403  -2.08606 Cl  0  0  0  0  0  0
   1.17445   2.06039  -0.53533 Cl  0  0  0  0  0  0
   1.71914  -0.65791   1.33622 Cl  0  0  0  0  0  0
   1.76533  -2.63092  -1.53526 Cl  0  0  0  0  0  0
  -1.79511   2.15484  -2.66172 Cl  0  0  0  0  0  0
   3.06051  -5.87660  -1.43413 H   0  0  0  0  0  0
   3.05952  -6.55954   0.19241 H   0  0  0  0  0  0
   2.28383  -5.02908  -0.09314 H   0  0  0  0  0  0
   0.58755  -6.85200   0.11236 H   0  0  0  0  0  0
  -2.74405  -1.58102   0.22875 H   0  0  0  0  0  0
  -0.56042   2.24221   0.98021 H   0  0  0  0  0  0
   0.97715   1.27371   2.36010 H   0  0  0  0  0  0
  -0.20218  -0.60137   3.44114 H   0  0  0  0  0  0
  -1.20965  -0.83021   2.01253 H   0  0  0  0  0  0
  -1.32924   0.66094   2.94367 H   0  0  0  0  0  0
  -2.94765  -3.72361  -1.60780 H   0  0  0  0  0  0
  -1.96803   2.76156  -0.43328 H   0  0  0  0  0  0
  -3.95216   0.57152  -1.24328 H   0  0  0  0  0  0
  -5.02322   1.07858   0.94489 H   0  0  0  0  0  0
  -3.69968   2.17253   1.36926 H   0  0  0  0  0  0
  -3.41101   0.43953   1.20780 H   0  0  0  0  0  0
   1.77145  -4.50701  -2.76225 H   0  0  0  0  0  0
  -0.02349  -2.29900  -3.80814 H   0  0  0  0  0  0
   0.06458  -5.17047  -4.88986 H   0  0  0  0  0  0
  -0.67740  -3.77995  -5.68706 H   0  0  0  0  0  0
  -1.35711  -4.38051  -4.18300 H   0  0  0  0  0  0
  -1.14722  -3.00866   0.18843 C   0  0  0  0  0  0
  -1.55468  -3.27668   1.17306 H   0  0  0  0  0  0
  -0.32635  -2.34975   0.43127 H   0  0  0  0  0  0
  -0.58233  -4.32722  -0.36508 C   0  0  0  0  0  0
  -1.36456  -5.05137  -0.13671 H   0  0  0  0  0  0
   0.22519  -4.57794   0.32671 H   0  0  0  0  0  0
  -1.82198  -1.35778  -1.67894 C   0  0  0  0  0  0
  -1.44258  -2.01612  -2.45748 H   0  0  0  0  0  0
  -2.68282  -0.88595  -2.15359 H   0  0  0  0  0  0
  -0.75442  -0.31346  -1.30059 C   0  0  0  0  0  0
   0.68929  -6.25696  -2.90102 H   0  0  0  0  0  0
  -0.30781   0.09228  -2.21470 H   0  0  0  0  0  0
   0.06765  -0.82583  -0.83606 H   0  0  0  0  0  0
  1  2  1  0  0  0
  2  3  1  0  0  0
  3  4  1  0  0  0
  6  7  1  0  0  0
  7  8  1  0  0  0
  8  9  1  0  0  0
  5 10  1  0  0  0
 11 12  1  0  0  0
 12 13  1  0  0  0
  6 11  1  0  0  0
 14 15  1  0  0  0
 15 16  1  0  0  0
  4 14  1  0  0  0
 12 17  1  0  0  0
 15 18  1  0  0  0
  2 19  1  0  0  0
  3 20  1  0  0  0
  7 21  1  0  0  0
  8 22  1  0  0  0
 14 23  1  0  0  0
 11 24  1  0  0  0
 25  1  1  0  0  0
 26  1  1  0  0  0
 27  1  1  0  0  0
 28  2  1  0  0  0
 29  5  1  0  0  0
 30  7  1  0  0  0
 31  8  1  0  0  0
 32  9  1  0  0  0
 33  9  1  0  0  0
 34  9  1  0  0  0
 35 10  1  0  0  0
 36 11  1  0  0  0
 37 12  1  0  0  0
 38 13  1  0  0  0
 39 13  1  0  0  0
 40 13  1  0  0  0
 41 14  1  0  0  0
 42 15  1  0  0  0
 43 16  1  0  0  0
 44 16  1  0  0  0
 45 16  1  0  0  0
 46  5  1  0  0  0
 47 46  1  0  0  0
 48 46  1  0  0  0
 49 46  1  0  0  0
 49  4  1  0  0  0
 50 49  1  0  0  0
 51 49  1  0  0  0
 52  5  1  0  0  0
 53 52  1  0  0  0
 54 52  1  0  0  0
 55 52  1  0  0  0
 55  6  1  0  0  0
 56  3  1  0  0  0
 57 55  1  0  0  0
 58 55  1  0  0  0
M  END
