c:/temp/p-9-examples-stereo.sdf
__Jmol-14_05041701573D 1   1.00000     0.00000     0
Jmol version 14.15.3  2017-04-30 15:40 EXTRACT: ({0:34})
 35 36  0  0  0  0              1 V2000
   3.69638  -1.21244   3.90179 C   0  0  0  0  0  0
   4.98783  -0.41397   3.77271 C   0  0  0  0  0  0
   3.55169  -2.17949   5.01673 C   0  0  0  0  0  0
   4.29318  -3.21247   5.40794 C   0  0  0  0  0  0
   6.10777  -0.55509   4.83051 C   0  0  0  0  0  0
   5.55041  -3.77311   4.81939 C   0  0  0  0  0  0
   7.11015  -1.70443   4.65567 C   0  0  0  0  0  0
   6.79105  -3.05096   5.30461 C   0  0  0  0  0  0
   2.42501  -0.83845   3.11153 C   0  0  0  0  0  0
   1.34372  -1.66355   3.21753 C   0  0  0  0  0  0
   2.43855   0.40328   2.28044 C   0  0  0  0  0  0
   1.56709   1.13154   1.55892 C   0  0  0  0  0  0
  -0.05975  -1.78646   2.76618 C   0  0  0  0  0  0
   0.14123   1.08949   1.19115 C   0  0  0  0  0  0
  -0.92881  -1.06399   2.06456 C   0  0  0  0  0  0
  -0.85414   0.23142   1.38707 C   0  0  0  0  0  0
   4.66685   0.63630   3.91864 H   0  0  0  0  0  0
   5.40785  -0.51070   2.74554 H   0  0  0  0  0  0
   2.63295  -2.04557   5.57672 H   0  0  0  0  0  0
   3.88301  -3.79034   6.23483 H   0  0  0  0  0  0
   6.73470   0.34975   4.65013 H   0  0  0  0  0  0
   5.73783  -0.46525   5.87784 H   0  0  0  0  0  0
   5.49556  -3.88208   3.71243 H   0  0  0  0  0  0
   5.63590  -4.80018   5.23841 H   0  0  0  0  0  0
   8.04547  -1.38797   5.16722 H   0  0  0  0  0  0
   7.35234  -1.82622   3.57701 H   0  0  0  0  0  0
   7.66540  -3.70687   5.07935 H   0  0  0  0  0  0
   6.74199  -2.94453   6.41456 H   0  0  0  0  0  0
   1.49673  -2.55027   3.81085 H   0  0  0  0  0  0
   3.41007   0.87766   2.23651 H   0  0  0  0  0  0
   2.01711   2.01350   1.11109 H   0  0  0  0  0  0
  -0.51144  -2.71789   3.12350 H   0  0  0  0  0  0
  -0.15620   1.96789   0.61510 H   0  0  0  0  0  0
  -1.92022  -1.51054   1.96648 H   0  0  0  0  0  0
  -1.80496   0.52688   0.95017 H   0  0  0  0  0  0
  1  2  1  0  0  0
  1  3  1  0  0  0
  1  9  1  0  0  0
  2  5  1  0  0  0
  3  4  2  0  0  0
  4  6  1  0  0  0
  5  7  1  0  0  0
  6  8  1  0  0  0
  7  8  1  0  0  0
  9 10  2  0  0  0
  9 11  1  0  0  0
 10 13  1  0  0  0
 11 12  2  0  0  0
 12 14  1  0  0  0
 13 15  2  0  0  0
 14 16  2  0  0  0
 15 16  1  0  0  0
  2 17  1  0  0  0
  2 18  1  0  0  0
  3 19  1  0  0  0
  4 20  1  0  0  0
  5 21  1  0  0  0
  5 22  1  0  0  0
  6 23  1  0  0  0
  6 24  1  0  0  0
  7 25  1  0  0  0
  7 26  1  0  0  0
  8 27  1  0  0  0
  8 28  1  0  0  0
 10 29  1  0  0  0
 11 30  1  0  0  0
 12 31  1  0  0  0
 13 32  1  0  0  0
 14 33  1  0  0  0
 15 34  1  0  0  0
 16 35  1  0  0  0
M  END
