c:/temp/p-9-examples-stereo.sdf
__Jmol-14_05041721523D 1   1.00000     0.00000     0
Jmol version 14.15.3  2017-04-30 15:40 EXTRACT: ({0:37})
 38 37  0  0  0  0              1 V2000
 -13.10207  -2.31012  -1.18841 C   0  0  0  0  0  0
 -11.71494  -2.86261  -1.11591 C   0  0  0  0  0  0
 -10.55855  -2.17897  -1.19635 C   0  0  0  0  0  0
  -9.23081  -2.90363  -1.16745 C   0  0  0  0  0  0
  -8.03367  -2.06303  -0.72802 C   0  0  0  0  0  0
  -6.73754  -2.87307  -0.68435 C   0  0  0  0  0  0
  -5.55872  -1.94600  -0.37729 C   0  0  0  0  0  0
  -4.21793  -2.66748  -0.40236 C   0  0  0  0  0  0
  -3.08958  -1.65473  -0.19340 C   0  0  0  0  0  0
  -1.74495  -2.36658  -0.14956 C   0  0  0  0  0  0
  -0.53804  -1.50402   0.12467 C   0  0  0  0  0  0
   0.58238  -1.97959   0.69689 C   0  0  0  0  0  0
   0.81806  -3.40489   1.08497 C   0  0  0  0  0  0
  -5.71799  -1.38899   0.92722 O   0  0  0  0  0  0
 -10.56074  -0.44615  -1.35194 Cl  0  0  0  0  0  0
  -0.58581   0.16772  -0.33486 Cl  0  0  0  0  0  0
 -13.16715  -1.40201  -1.79819 H   0  0  0  0  0  0
 -13.48017  -2.09696  -0.18747 H   0  0  0  0  0  0
 -13.76413  -3.04587  -1.64984 H   0  0  0  0  0  0
 -11.66526  -3.93976  -1.01687 H   0  0  0  0  0  0
  -9.03203  -3.28811  -2.17539 H   0  0  0  0  0  0
  -9.30164  -3.77530  -0.50984 H   0  0  0  0  0  0
  -8.24171  -1.63825   0.26284 H   0  0  0  0  0  0
  -7.89331  -1.22616  -1.41586 H   0  0  0  0  0  0
  -6.57839  -3.38174  -1.63940 H   0  0  0  0  0  0
  -6.82229  -3.64546   0.09264 H   0  0  0  0  0  0
  -5.53422  -1.12706  -1.10254 H   0  0  0  0  0  0
  -4.08171  -3.18465  -1.36175 H   0  0  0  0  0  0
  -4.18480  -3.42366   0.38810 H   0  0  0  0  0  0
  -3.23636  -1.10134   0.73897 H   0  0  0  0  0  0
  -3.10779  -0.92825  -1.00884 H   0  0  0  0  0  0
  -1.58758  -2.89451  -1.09460 H   0  0  0  0  0  0
  -1.82128  -3.12830   0.63250 H   0  0  0  0  0  0
   1.41065  -1.30529   0.87945 H   0  0  0  0  0  0
   0.17089  -4.10892   0.55017 H   0  0  0  0  0  0
   0.66763  -3.53797   2.15706 H   0  0  0  0  0  0
   1.84774  -3.68854   0.84545 H   0  0  0  0  0  0
  -6.40500  -0.70010   0.87149 H   0  0  0  0  0  0
  1  2  1  0  0  0
  2  3  2  0  0  0
  3  4  1  0  0  0
  3 15  1  0  0  0
  4  5  1  0  0  0
  5  6  1  0  0  0
  6  7  1  0  0  0
  7  8  1  0  0  0
  7 14  1  0  0  0
  8  9  1  0  0  0
  9 10  1  0  0  0
 10 11  1  0  0  0
 11 12  2  0  0  0
 11 16  1  0  0  0
 12 13  1  0  0  0
  1 17  1  0  0  0
  1 18  1  0  0  0
  1 19  1  0  0  0
  2 20  1  0  0  0
  4 21  1  0  0  0
  4 22  1  0  0  0
  5 23  1  0  0  0
  5 24  1  0  0  0
  6 25  1  0  0  0
  6 26  1  0  0  0
  7 27  1  0  0  0
  8 28  1  0  0  0
  8 29  1  0  0  0
  9 30  1  0  0  0
  9 31  1  0  0  0
 10 32  1  0  0  0
 10 33  1  0  0  0
 12 34  1  0  0  0
 13 35  1  0  0  0
 13 36  1  0  0  0
 13 37  1  0  0  0
 14 38  1  0  0  0
M  END
