https://cactus.nci.nih.gov/chemical/structure/2,%206-dichloro-2',6'-dibromo-biphenyl/file?format=sdf&get3d=true
__Jmol-14_05031719483D 1   1.00000     0.00000     0
Jmol version 14.15.2  2017-04-29 14:09 EXTRACT: ({0:21})
 22 23  0  0  0  0              1 V2000
  -0.00680  -0.68330  -2.71330 Cl  0  0  0  0  0  0
  -0.00300  -1.54510  -1.20630 C   0  0  0  0  0  0
  -0.00010  -0.84440  -0.00070 C   0  0  0  0  0  0
   0.00300  -1.54380   1.20560 C   0  0  0  0  0  0
   0.00320  -2.92520   1.19980 C   0  0  0  0  0  0
   0.00080  -3.61460   0.00080 C   0  0  0  0  0  0
  -0.00851  -2.92650  -1.19900 C   0  0  0  0  0  0
   0.00720  -0.68030   2.71160 Cl  0  0  0  0  0  0
   0.00010   0.63900  -0.00160 C   0  0  0  0  0  0
  -1.20560   1.33910   0.00080 C   0  0  0  0  0  0
  -1.19890   2.72030  -0.00000 C   0  0  0  0  0  0
   0.00060   3.40880  -0.00370 C   0  0  0  0  0  0
   1.19990   2.71990  -0.00650 C   0  0  0  0  0  0
   1.20610   1.33870   0.00110 C   0  0  0  0  0  0
   2.84690   0.39861  -0.00220 Br  0  0  0  0  0  0
  -2.84670   0.39960   0.00450 Br  0  0  0  0  0  0
   0.00560  -3.46800   2.13350 H   0  0  0  0  0  0
   0.00140  -4.69460   0.00140 H   0  0  0  0  0  0
  -0.01070  -3.47040  -2.13200 H   0  0  0  0  0  0
  -2.13220   3.26370   0.00180 H   0  0  0  0  0  0
   0.00080   4.48880  -0.00470 H   0  0  0  0  0  0
   2.13340   3.26300  -0.00971 H   0  0  0  0  0  0
  1  2  1  0  0  0
  2  3  2  0  0  0
  3  4  1  0  0  0
  4  5  2  0  0  0
  5  6  1  0  0  0
  6  7  2  0  0  0
  2  7  1  0  0  0
  4  8  1  0  0  0
  3  9  1  0  0  0
  9 10  2  0  0  0
 10 11  1  0  0  0
 11 12  2  0  0  0
 12 13  1  0  0  0
 13 14  2  0  0  0
  9 14  1  0  0  0
 14 15  1  0  0  0
 10 16  1  0  0  0
  5 17  1  0  0  0
  6 18  1  0  0  0
  7 19  1  0  0  0
 11 20  1  0  0  0
 12 21  1  0  0  0
 13 22  1  0  0  0
M  END
