c:/temp/p-9-examples-stereo.sdf
__Jmol-14_05031714543D 1   1.00000     0.00000     0
Jmol version 14.15.3  2017-04-30 15:40 EXTRACT: ({0:18 20:26 28:32})
 31 32  0  0  0  0              1 V2000
   2.96206  -0.75602   1.46856 C   0  0  0  0  0  0
   4.27770  -0.51826   0.65808 C   0  0  0  0  0  0
   5.13947  -1.74279   0.33725 C   0  0  0  0  0  0
   4.46846  -2.81783  -0.50494 C   0  0  0  0  0  0
   3.55626  -3.73995   0.30265 C   0  0  0  0  0  0
   2.33954  -3.06944   0.97555 C   0  0  0  0  0  0
   1.15959  -2.61374   0.09201 C   0  0  0  0  0  0
   1.06816  -1.12260  -0.25693 C   0  0  0  0  0  0
   1.69402  -0.21198   0.80442 C   0  0  0  0  0  0
   2.74504  -2.09144   1.95187 O   0  0  0  0  0  0
   5.13760   0.35479   1.40300 O   0  0  0  0  0  0
   1.68467  -0.66088  -2.25279 I   0  0  0  0  0  0
   3.10518  -4.81636  -0.55244 O   0  0  0  0  0  0
   3.92927  -5.98466  -0.42699 C   0  0  0  0  0  0
   5.54249  -2.17523   1.25935 H   0  0  0  0  0  0
   6.02208  -1.39043  -0.20784 H   0  0  0  0  0  0
   5.25660  -3.42779  -0.95832 H   0  0  0  0  0  0
   3.94669  -2.39106  -1.35918 H   0  0  0  0  0  0
   4.16354  -4.15683   1.11445 H   0  0  0  0  0  0
   0.26214  -2.81524   0.68923 H   0  0  0  0  0  0
   1.04496  -3.25615  -0.78737 H   0  0  0  0  0  0
  -0.00010  -0.87711  -0.26549 H   0  0  0  0  0  0
   1.85868   0.80457   0.42984 H   0  0  0  0  0  0
   0.94701  -0.11354   1.59847 H   0  0  0  0  0  0
   4.65200   1.16856   1.60982 H   0  0  0  0  0  0
   3.79402  -6.43085   0.56407 H   0  0  0  0  0  0
   3.62197  -6.71402  -1.18068 H   0  0  0  0  0  0
   4.06552   0.01958  -0.26937 H   0  0  0  0  0  0
   1.91325  -3.88002   1.57761 H   0  0  0  0  0  0
   3.06286  -0.17043   2.39044 H   0  0  0  0  0  0
   4.98598  -5.74497  -0.58306 H   0  0  0  0  0  0
  1  2  1  0  0  0
  1  9  1  0  0  0
  1 10  1  0  0  0
  2  3  1  0  0  0
  2 11  1  0  0  0
  3  4  1  0  0  0
  4  5  1  0  0  0
  5  6  1  0  0  0
  5 13  1  0  0  0
  6  7  1  0  0  0
  6 10  1  0  0  0
  7  8  1  0  0  0
  8  9  1  0  0  0
  8 12  1  0  0  0
 13 14  1  0  0  0
  3 15  1  0  0  0
  3 16  1  0  0  0
  4 17  1  0  0  0
  4 18  1  0  0  0
  5 19  1  0  0  0
  7 20  1  0  0  0
  7 21  1  0  0  0
  8 22  1  0  0  0
  9 23  1  0  0  0
  9 24  1  0  0  0
 11 25  1  0  0  0
 14 26  1  0  0  0
 14 27  1  0  0  0
 28  2  1  0  0  0
 29  6  1  0  0  0
 30  1  1  0  0  0
 31 14  1  0  0  0
M  END
