c:/jmol-dev/bobtest/t.sdf
__Jmol-14_04261711523D 1   1.00000     0.00000     0
Jmol version 14.15.1  2017-04-25 07:17 EXTRACT: ({0:60})
 61 60  0  0  0  0              1 V2000
  -4.95272   3.48123  -2.33170 C   0  0  0  0  0  0
  -4.16958   2.27965  -2.79798 C   0  0  0  0  0  0
  -2.94473   2.14196  -1.93718 C   0  0  0  0  0  0
  -4.95303   1.06817  -2.71085 O   0  0  0  0  0  0
  -2.48163   0.86859  -2.37040 O   0  0  0  0  0  0
  -2.04188   3.24013  -2.16038 O   0  0  0  0  0  0
  -1.17908   0.62708  -1.82206 N   0  0  0  0  0  0
  -0.29179   0.41653  -2.93557 C   0  0  0  0  0  0
  -1.32313  -0.59175  -0.97749 C   0  0  0  0  0  0
   0.95190   0.30039  -2.23639 N   0  0  0  0  0  0
  -0.19774   1.79087  -4.08222 Cl  0  0  0  0  0  0
  -2.03634  -0.18835   0.30658 C   0  0  0  0  0  0
   1.22113  -0.92656  -1.41259 O   0  0  0  0  0  0
   1.38540   1.52279  -1.62476 C   0  0  0  0  0  0
  -1.89377  -1.24114   1.42143 C   0  0  0  0  0  0
  -1.57200   1.08631   0.79726 O   0  0  0  0  0  0
   1.76554  -1.94122  -2.29441 C   0  0  0  0  0  0
   2.85759   1.34174  -1.36135 C   0  0  0  0  0  0
  -2.68889  -0.74802   2.62049 C   0  0  0  0  0  0
  -0.52574  -1.47888   1.78490 O   0  0  0  0  0  0
   2.93433  -2.74017  -1.73517 C   0  0  0  0  0  0
   0.68498  -2.79091  -2.64639 O   0  0  0  0  0  0
   3.36750   2.63277  -0.77192 C   0  0  0  0  0  0
   3.58065   1.01661  -2.56598 O   0  0  0  0  0  0
   3.32788  -3.81883  -2.74528 C   0  0  0  0  0  0
   4.07501  -1.87500  -1.55180 O   0  0  0  0  0  0
   4.82241   2.39252  -0.42151 C   0  0  0  0  0  0
   2.62954   2.98007   0.41571 O   0  0  0  0  0  0
  -5.23015   3.38109  -1.27187 H   0  0  0  0  0  0
  -5.87614   3.57007  -2.90286 H   0  0  0  0  0  0
  -4.36722   4.39724  -2.44984 H   0  0  0  0  0  0
  -3.87058   2.40474  -3.83742 H   0  0  0  0  0  0
  -3.21773   2.10697  -0.86720 H   0  0  0  0  0  0
  -4.33863   0.33849  -2.93768 H   0  0  0  0  0  0
  -1.73006   3.55409  -1.29990 H   0  0  0  0  0  0
  -0.58211  -0.48688  -3.50556 H   0  0  0  0  0  0
  -0.35649  -1.02118  -0.73391 H   0  0  0  0  0  0
  -1.87299  -1.39446  -1.49778 H   0  0  0  0  0  0
  -3.09277  -0.06187   0.08870 H   0  0  0  0  0  0
   0.78052   1.72041  -0.74030 H   0  0  0  0  0  0
   1.26054   2.33970  -2.34190 H   0  0  0  0  0  0
  -2.31834  -2.19355   1.07129 H   0  0  0  0  0  0
  -1.28700   1.61016   0.01639 H   0  0  0  0  0  0
   2.16035  -1.46019  -3.17337 H   0  0  0  0  0  0
   2.98731   0.53911  -0.61715 H   0  0  0  0  0  0
  -2.29961   0.21033   3.00431 H   0  0  0  0  0  0
  -2.62892  -1.46245   3.44444 H   0  0  0  0  0  0
  -3.73864  -0.59711   2.35966 H   0  0  0  0  0  0
  -0.06223  -1.94848   1.06707 H   0  0  0  0  0  0
   2.69273  -3.19100  -0.77382 H   0  0  0  0  0  0
  -0.06602  -2.17835  -2.54480 H   0  0  0  0  0  0
   3.29150   3.44335  -1.49247 H   0  0  0  0  0  0
   3.64436   0.04705  -2.63896 H   0  0  0  0  0  0
   4.19379  -4.38279  -2.39377 H   0  0  0  0  0  0
   3.62395  -3.36899  -3.71131 H   0  0  0  0  0  0
   2.51532  -4.51520  -2.93522 H   0  0  0  0  0  0
   3.82020  -1.19605  -0.91721 H   0  0  0  0  0  0
   4.92513   1.54940   0.26572 H   0  0  0  0  0  0
   5.22984   3.27064   0.07418 H   0  0  0  0  0  0
   5.42021   2.18562  -1.31285 H   0  0  0  0  0  0
   1.71593   3.22542   0.17189 H   0  0  0  0  0  0
  1  2  1  0  0  0
  2  3  1  0  0  0
  2  4  1  0  0  0
  3  5  1  0  0  0
  3  6  1  0  0  0
  5  7  1  0  0  0
  7  8  1  0  0  0
  7  9  1  0  0  0
  8 10  1  0  0  0
  8 11  1  0  0  0
  9 12  1  0  0  0
 10 13  1  0  0  0
 10 14  1  0  0  0
 12 15  1  0  0  0
 12 16  1  0  0  0
 13 17  1  0  0  0
 14 18  1  0  0  0
 15 19  1  0  0  0
 15 20  1  0  0  0
 17 21  1  0  0  0
 17 22  1  0  0  0
 18 23  1  0  0  0
 18 24  1  0  0  0
 21 25  1  0  0  0
 21 26  1  0  0  0
 23 27  1  0  0  0
 23 28  1  0  0  0
 29  1  1  0  0  0
 30  1  1  0  0  0
 31  1  1  0  0  0
 32  2  1  0  0  0
 33  3  1  0  0  0
 34  4  1  0  0  0
 35  6  1  0  0  0
 36  8  1  0  0  0
 37  9  1  0  0  0
 38  9  1  0  0  0
 39 12  1  0  0  0
 40 14  1  0  0  0
 41 14  1  0  0  0
 42 15  1  0  0  0
 43 16  1  0  0  0
 44 17  1  0  0  0
 45 18  1  0  0  0
 46 19  1  0  0  0
 47 19  1  0  0  0
 48 19  1  0  0  0
 49 20  1  0  0  0
 50 21  1  0  0  0
 51 22  1  0  0  0
 52 23  1  0  0  0
 53 24  1  0  0  0
 54 25  1  0  0  0
 55 25  1  0  0  0
 56 25  1  0  0  0
 57 26  1  0  0  0
 58 27  1  0  0  0
 59 27  1  0  0  0
 60 27  1  0  0  0
 61 28  1  0  0  0
M  END
