c:/temp/p-9-examples-stereo.sdf
__Jmol-14_05061712393D 1   1.00000     0.00000     0
Jmol version 14.15.3  2017-04-30 15:40 EXTRACT: ({0:44})
 45 46  0  0  0  0              1 V2000
   4.83045  -3.71838   0.03548 C   0  0  0  0  0  0
   4.17579  -4.31931  -1.11882 C   0  0  0  0  0  0
   4.11492  -2.81388   0.76812 C   0  0  0  0  0  0
   2.87674  -4.12157  -1.37250 C   0  0  0  0  0  0
   2.65383  -2.85219   0.66422 C   0  0  0  0  0  0
   2.05733  -3.54400  -0.31725 C   0  0  0  0  0  0
   6.21373  -3.93060   0.11400 O   0  0  0  0  0  0
   0.68106  -3.78714  -0.35156 O   0  0  0  0  0  0
   4.71182  -1.77199   1.67267 C   0  0  0  0  0  0
   4.12235  -1.20167   2.58012 O   0  0  0  0  0  0
   5.93764  -1.36872   1.30626 O   0  0  0  0  0  0
   2.17021  -4.36473  -3.08889 Br  0  0  0  0  0  0
   6.58211  -5.31899   0.37231 C   0  0  0  0  0  0
  -0.21951  -6.06943  -0.73496 C   0  0  0  0  0  0
   0.43642  -7.47041  -0.73237 C   0  0  0  0  0  0
   1.93956  -7.45920  -1.02780 C   0  0  0  0  0  0
   2.58002  -8.83452  -1.29770 C   0  0  0  0  0  0
   4.13846  -8.86559  -1.36266 C   0  0  0  0  0  0
   4.83396  -7.57635  -0.91424 C   0  0  0  0  0  0
   6.36334  -7.52758  -1.04690 C   0  0  0  0  0  0
   6.95856  -6.10174  -0.91125 C   0  0  0  0  0  0
   0.33959  -5.05054   0.28346 C   0  0  0  0  0  0
   4.79265  -4.78426  -1.87244 H   0  0  0  0  0  0
   2.06301  -2.39137   1.45242 H   0  0  0  0  0  0
   6.12381  -0.60822   1.88711 H   0  0  0  0  0  0
   5.81868  -5.81743   0.98047 H   0  0  0  0  0  0
   7.46902  -5.27962   1.01548 H   0  0  0  0  0  0
  -1.28103  -6.21178  -0.51547 H   0  0  0  0  0  0
  -0.19086  -5.65646  -1.74300 H   0  0  0  0  0  0
  -0.07399  -8.08824  -1.48099 H   0  0  0  0  0  0
   0.26292  -7.95188   0.23180 H   0  0  0  0  0  0
   2.43206  -6.97903  -0.18444 H   0  0  0  0  0  0
   2.11728  -6.85479  -1.91557 H   0  0  0  0  0  0
   2.23681  -9.54967  -0.54676 H   0  0  0  0  0  0
   2.19356  -9.20831  -2.25163 H   0  0  0  0  0  0
   4.44412  -9.09692  -2.38627 H   0  0  0  0  0  0
   4.50062  -9.70247  -0.75173 H   0  0  0  0  0  0
   4.43526  -6.79765  -1.55794 H   0  0  0  0  0  0
   4.55373  -7.35642   0.11725 H   0  0  0  0  0  0
   6.65822  -7.93032  -2.01931 H   0  0  0  0  0  0
   6.81077  -8.18398  -0.29162 H   0  0  0  0  0  0
   8.05079  -6.19547  -0.94451 H   0  0  0  0  0  0
   6.72061  -5.52119  -1.80831 H   0  0  0  0  0  0
  -0.45073  -4.81914   1.00821 H   0  0  0  0  0  0
   1.16512  -5.46069   0.87909 H   0  0  0  0  0  0
  1  2  1  0  0  0
  1  3  2  0  0  0
  1  7  1  0  0  0
  2  4  2  0  0  0
  3  5  1  0  0  0
  3  9  1  0  0  0
  6  4  1  0  0  0
  4 12  1  0  0  0
  5  6  2  0  0  0
  6  8  1  0  0  0
  7 13  1  0  0  0
  8 22  1  0  0  0
  9 10  2  0  0  0
  9 11  1  0  0  0
 13 21  1  0  0  0
 14 15  1  0  0  0
 14 22  1  0  0  0
 15 16  1  0  0  0
 16 17  1  0  0  0
 17 18  1  0  0  0
 18 19  1  0  0  0
 19 20  1  0  0  0
 20 21  1  0  0  0
  2 23  1  0  0  0
  5 24  1  0  0  0
 11 25  1  0  0  0
 13 26  1  0  0  0
 13 27  1  0  0  0
 14 28  1  0  0  0
 14 29  1  0  0  0
 15 30  1  0  0  0
 15 31  1  0  0  0
 16 32  1  0  0  0
 16 33  1  0  0  0
 17 34  1  0  0  0
 17 35  1  0  0  0
 18 36  1  0  0  0
 18 37  1  0  0  0
 19 38  1  0  0  0
 19 39  1  0  0  0
 20 40  1  0  0  0
 20 41  1  0  0  0
 21 42  1  0  0  0
 21 43  1  0  0  0
 22 44  1  0  0  0
 22 45  1  0  0  0
M  END
