c:/jmol-dev/bobtest/test214.mol
__Jmol-14_05181709063D 1   1.00000     0.00000     0
Jmol version 14.15.5  2017-05-17 23:50 EXTRACT: ({0:30})
 31 33  0  0  0  0              1 V2000
   3.94324  -1.27222   2.65155 C   0  0  0  0  0  0
   3.19399  -1.19888   3.89824 C   0  0  0  0  0  0
   3.23508  -0.97082   1.52776 C   0  0  0  0  0  0
   1.86615  -1.35598   3.90323 C   0  0  0  0  0  0
   1.79927  -1.30337   1.52457 C   0  0  0  0  0  0
   1.17459  -1.66649   2.66994 C   0  0  0  0  0  0
   5.25815  -1.91859   2.66071 C   0  0  0  0  0  0
   0.04467  -2.59050   2.64082 C   0  0  0  0  0  0
   3.81627  -0.48066   0.21880 C   0  0  0  0  0  0
   3.30013   0.41895  -0.41948 O   0  0  0  0  0  0
   4.93987  -1.10983  -0.20876 O   0  0  0  0  0  0
   0.18570  -3.93061   2.83339 C   0  0  0  0  0  0
   5.40176  -3.25865   2.82966 C   0  0  0  0  0  0
   4.26564  -4.16657   2.99544 C   0  0  0  0  0  0
   3.56988  -4.35231   4.26382 C   0  0  0  0  0  0
   3.63711  -4.61246   1.89299 C   0  0  0  0  0  0
   2.23913  -4.54517   4.29183 C   0  0  0  0  0  0
   2.19770  -4.82023   1.90878 C   0  0  0  0  0  0
   1.48951  -4.56109   3.03216 C   0  0  0  0  0  0
   1.30904  -4.74255   5.90138 Br  0  0  0  0  0  0
   3.73566  -1.04072   4.82725 H   0  0  0  0  0  0
   1.30200  -1.34183   4.83240 H   0  0  0  0  0  0
   1.35933  -1.53161   0.56077 H   0  0  0  0  0  0
   6.13337  -1.27627   2.55937 H   0  0  0  0  0  0
  -0.93774  -2.16339   2.48304 H   0  0  0  0  0  0
   5.15554  -1.89540   0.31682 H   0  0  0  0  0  0
  -0.68221  -4.57743   2.83079 H   0  0  0  0  0  0
   6.38885  -3.70638   2.85975 H   0  0  0  0  0  0
   4.15230  -4.28381   5.17971 H   0  0  0  0  0  0
   4.07429  -4.48196   0.90637 H   0  0  0  0  0  0
   1.71625  -4.79422   0.93885 H   0  0  0  0  0  0
  1  2  1  0  0  0
  1  3  2  0  0  0
  1  7  1  0  0  0
  2  4  2  0  0  0
  3  5  1  0  0  0
  3  9  1  0  0  0
  6  4  1  0  0  0
  5  6  2  0  0  0
  6  8  1  0  0  0
  7 13  2  0  0  0
  8 12  2  0  0  0
  9 10  2  0  0  0
  9 11  1  0  0  0
 12 19  1  0  0  0
 13 14  1  0  0  0
 14 15  1  0  0  0
 14 16  2  0  0  0
 15 17  2  0  0  0
 16 18  1  0  0  0
 19 17  1  0  0  0
 17 20  1  0  0  0
 18 19  2  0  0  0
  2 21  1  0  0  0
  4 22  1  0  0  0
  5 23  1  0  0  0
  7 24  1  0  0  0
  8 25  1  0  0  0
 11 26  1  0  0  0
 12 27  1  0  0  0
 13 28  1  0  0  0
 15 29  1  0  0  0
 16 30  1  0  0  0
 18 31  1  0  0  0
M  END
