c:/temp/p-9-examples-stereo.sdf
__Jmol-14_05041707563D 1   1.00000     0.00000     0
Jmol version 14.15.3  2017-04-30 15:40 EXTRACT: ({0:50})
 51 53  0  0  0  0              1 V2000
   2.99743  -1.15566   0.29447 N   0  0  0  0  0  0
   2.62475  -2.44661  -0.27338 C   0  0  0  0  0  0
   2.08149  -0.16489   0.57405 C   0  0  0  0  0  0
   1.28853  -2.88001   0.33851 C   0  0  0  0  0  0
   0.76679  -0.40718   0.52440 C   0  0  0  0  0  0
   0.22549  -1.77976   0.23047 C   0  0  0  0  0  0
   2.62782   1.14624   0.89700 C   0  0  0  0  0  0
   3.81370   1.29598   1.51883 C   0  0  0  0  0  0
   4.46867   2.60013   1.89432 C   0  0  0  0  0  0
   5.93984   2.43114   2.35105 C   0  0  0  0  0  0
   6.98072   2.64499   1.22412 C   0  0  0  0  0  0
   8.12317   1.63688   1.09304 C   0  0  0  0  0  0
   3.74332  -3.45959   0.02678 C   0  0  0  0  0  0
   5.06692  -3.14509  -0.69396 C   0  0  0  0  0  0
   6.20960  -2.81865   0.27305 C   0  0  0  0  0  0
   7.50973  -2.51705  -0.48439 C   0  0  0  0  0  0
   8.68767  -2.13663   0.42623 C   0  0  0  0  0  0
   8.92378  -0.65063   0.63900 C   0  0  0  0  0  0
   9.45739   2.07526   1.03446 C   0  0  0  0  0  0
  10.50592   1.18281   0.80277 C   0  0  0  0  0  0
  10.23888  -0.16487   0.61319 C   0  0  0  0  0  0
   7.88142   0.27199   0.89585 C   0  0  0  0  0  0
   3.87490  -0.78186  -0.05367 H   0  0  0  0  0  0
   2.50558  -2.33786  -1.36023 H   0  0  0  0  0  0
   1.43081  -3.12409   1.40046 H   0  0  0  0  0  0
   0.92547  -3.79917  -0.13913 H   0  0  0  0  0  0
   0.04721   0.38193   0.72118 H   0  0  0  0  0  0
  -0.59430  -2.00555   0.91567 H   0  0  0  0  0  0
  -0.19978  -1.77486  -0.78145 H   0  0  0  0  0  0
   2.03232   2.01432   0.63517 H   0  0  0  0  0  0
   4.33714   0.40310   1.84048 H   0  0  0  0  0  0
   3.89797   3.01886   2.73252 H   0  0  0  0  0  0
   4.39324   3.31751   1.07209 H   0  0  0  0  0  0
   6.08564   1.48199   2.87307 H   0  0  0  0  0  0
   6.12910   3.20015   3.11190 H   0  0  0  0  0  0
   7.41553   3.63686   1.38045 H   0  0  0  0  0  0
   6.48652   2.69615   0.24923 H   0  0  0  0  0  0
   3.40764  -4.45452  -0.28921 H   0  0  0  0  0  0
   3.90454  -3.52901   1.11198 H   0  0  0  0  0  0
   4.94137  -2.32338  -1.40995 H   0  0  0  0  0  0
   5.35380  -4.01564  -1.28891 H   0  0  0  0  0  0
   6.37390  -3.67130   0.94705 H   0  0  0  0  0  0
   5.92146  -1.97922   0.90603 H   0  0  0  0  0  0
   7.34247  -1.74456  -1.24603 H   0  0  0  0  0  0
   7.78574  -3.42557  -1.03407 H   0  0  0  0  0  0
   9.59140  -2.55973  -0.03492 H   0  0  0  0  0  0
   8.59783  -2.62303   1.40178 H   0  0  0  0  0  0
   9.69203   3.12599   1.14997 H   0  0  0  0  0  0
  11.52682   1.54668   0.75556 H   0  0  0  0  0  0
  11.07349  -0.84185   0.43043 H   0  0  0  0  0  0
   6.85314  -0.07036   0.91541 H   0  0  0  0  0  0
  1  2  1  0  0  0
  1  3  1  0  0  0
  2  4  1  0  0  0
  2 13  1  0  0  0
  3  5  2  0  0  0
  3  7  1  0  0  0
  4  6  1  0  0  0
  5  6  1  0  0  0
  7  8  2  0  0  0
  8  9  1  0  0  0
  9 10  1  0  0  0
 10 11  1  0  0  0
 11 12  1  0  0  0
 12 19  2  0  0  0
 12 22  1  0  0  0
 13 14  1  0  0  0
 14 15  1  0  0  0
 15 16  1  0  0  0
 16 17  1  0  0  0
 17 18  1  0  0  0
 18 21  1  0  0  0
 18 22  2  0  0  0
 19 20  1  0  0  0
 20 21  2  0  0  0
  1 23  1  0  0  0
  2 24  1  0  0  0
  4 25  1  0  0  0
  4 26  1  0  0  0
  5 27  1  0  0  0
  6 28  1  0  0  0
  6 29  1  0  0  0
  7 30  1  0  0  0
  8 31  1  0  0  0
  9 32  1  0  0  0
  9 33  1  0  0  0
 10 34  1  0  0  0
 10 35  1  0  0  0
 11 36  1  0  0  0
 11 37  1  0  0  0
 13 38  1  0  0  0
 13 39  1  0  0  0
 14 40  1  0  0  0
 14 41  1  0  0  0
 15 42  1  0  0  0
 15 43  1  0  0  0
 16 44  1  0  0  0
 16 45  1  0  0  0
 17 46  1  0  0  0
 17 47  1  0  0  0
 19 48  1  0  0  0
 20 49  1  0  0  0
 21 50  1  0  0  0
 22 51  1  0  0  0
M  END
