c:/temp/p-9-examples-stereo.sdf
__Jmol-14_05031714523D 1   1.00000     0.00000     0
Jmol version 14.15.3  2017-04-30 15:40 EXTRACT: ({0:11 14 15})
 14 16  0  0  0  0              1 V2000
   1.51152  -2.97327   1.17388 C   0  0  0  0  0  0
   1.55584  -2.33997   2.46957 O   0  0  0  0  0  0
   0.95245  -1.60323   1.38173 C   0  0  0  0  0  0
   1.83740  -0.78184   0.48833 C   0  0  0  0  0  0
   3.14188  -0.65980   1.07830 O   0  0  0  0  0  0
   3.74895  -1.93522   0.78429 C   0  0  0  0  0  0
   2.59228  -2.70865   0.16415 C   0  0  0  0  0  0
   2.03184  -1.66065  -0.61171 O   0  0  0  0  0  0
  -0.11465  -1.45938   1.29431 H   0  0  0  0  0  0
   0.88402  -3.83936   1.01688 H   0  0  0  0  0  0
   2.87795  -3.57664  -0.44213 H   0  0  0  0  0  0
   1.42304   0.19060   0.19183 H   0  0  0  0  0  0
   4.15347  -2.39400   1.69596 H   0  0  0  0  0  0
   4.55895  -1.76840   0.07121 H   0  0  0  0  0  0
  1  7  1  0  0  0
  1  2  1  0  0  0
  1  3  1  0  0  0
  1 10  1  0  0  0
  2  3  1  0  0  0
  3  4  1  0  0  0
  3  9  1  0  0  0
  4  8  1  0  0  0
  4  5  1  0  0  0
  4 12  1  0  0  0
  5  6  1  0  0  0
  6  7  1  0  0  0
  7  8  1  0  0  0
  7 11  1  0  0  0
 13  6  1  0  0  0
 14  6  1  0  0  0
M  END
