c:/temp/p-9-examples-stereo.sdf
__Jmol-14_05041700513D 1   1.00000     0.00000     0
Jmol version 14.15.3  2017-04-30 15:40 EXTRACT: ({0:132})
133134  0  0  0  0              1 V2000
   7.64642  -1.10430   0.17215 C   0  0  0  0  0  0
   6.59375  -2.13860  -0.07469 C   0  0  0  0  0  0
   5.10336  -2.13900  -0.02191 C   0  0  0  0  0  0
   4.23555  -0.94753  -0.02196 C   0  0  0  0  0  0
   2.88146  -1.62690   0.04614 C   0  0  0  0  0  0
   1.75036  -0.68154   0.00017 C   0  0  0  0  0  0
   0.38048  -1.27573  -0.05093 C   0  0  0  0  0  0
   0.41320  -2.79237  -0.01300 C   0  0  0  0  0  0
  -0.98199  -3.35901  -0.00424 C   0  0  0  0  0  0
  -1.05350  -4.86808  -0.00758 C   0  0  0  0  0  0
   0.29450  -5.50269   0.04653 C   0  0  0  0  0  0
   0.22282  -7.00855  -0.01606 C   0  0  0  0  0  0
   1.57433  -7.64246  -0.00745 C   0  0  0  0  0  0
  19.89152  -7.61461   0.00882 C   0  0  0  0  0  0
  21.26002  -7.01731  -0.05395 C   0  0  0  0  0  0
  21.16765  -5.50953  -0.01538 C   0  0  0  0  0  0
  22.54965  -4.88490  -0.00567 C   0  0  0  0  0  0
  22.42972  -3.38688   0.02280 C   0  0  0  0  0  0
  21.03300  -2.85136   0.00695 C   0  0  0  0  0  0
  20.97960  -1.35533   0.01592 C   0  0  0  0  0  0
  19.62027  -0.81828   0.00097 C   0  0  0  0  0  0
  18.47463  -1.82206  -0.01081 C   0  0  0  0  0  0
  17.19785  -1.07818   0.00160 C   0  0  0  0  0  0
  16.01860  -2.01457  -0.00246 C   0  0  0  0  0  0
  14.78015  -1.10398  -0.00675 C   0  0  0  0  0  0
  13.51367  -1.88262  -0.01868 C   0  0  0  0  0  0
  12.40408  -0.88677  -0.10775 C   0  0  0  0  0  0
   8.96288  -1.92517   0.30257 C   0  0  0  0  0  0
  10.02164  -1.37624   0.03684 C   0  0  0  0  0  0
  11.17519  -1.09968  -0.10259 C   0  0  0  0  0  0
   8.92408  -3.45986   0.58853 C   0  0  0  0  0  0
   2.68983  -6.61872   0.02700 C   0  0  0  0  0  0
  18.78779  -6.61177  -0.00495 C   0  0  0  0  0  0
   3.90666  -7.37523   0.00008 C   0  0  0  0  0  0
   5.04936  -6.43514  -0.03984 C   0  0  0  0  0  0
   6.17418  -7.41482  -0.06841 C   0  0  0  0  0  0
   7.38256  -6.66242  -0.55287 C   0  0  0  0  0  0
   8.47696  -7.01479   0.40282 C   0  0  0  0  0  0
   8.64535  -5.77402   1.35261 C   0  0  0  0  0  0
   9.76411  -4.72804   1.04789 C   0  0  0  0  0  0
  17.50160  -7.37508   0.00727 C   0  0  0  0  0  0
  16.46030  -6.39912  -0.01944 C   0  0  0  0  0  0
  15.20773  -7.27073  -0.00386 C   0  0  0  0  0  0
  14.18722  -6.23125  -0.04097 C   0  0  0  0  0  0
  12.79631  -6.74090   0.00749 C   0  0  0  0  0  0
  12.07327  -5.39986   0.04367 C   0  0  0  0  0  0
  10.62261  -5.65048   0.15798 C   0  0  0  0  0  0
   7.44680  -0.54994   1.07575 H   0  0  0  0  0  0
   7.69953  -0.36909  -0.70707 H   0  0  0  0  0  0
   6.72435  -2.88324   0.72208 H   0  0  0  0  0  0
   6.82710  -2.62189  -0.98068 H   0  0  0  0  0  0
   4.84049  -2.76007   0.79782 H   0  0  0  0  0  0
   4.81940  -2.75246  -0.90476 H   0  0  0  0  0  0
   4.35774  -0.33791  -0.89067 H   0  0  0  0  0  0
   4.41334  -0.32199   0.88358 H   0  0  0  0  0  0
   2.81411  -2.21876   0.95910 H   0  0  0  0  0  0
   2.80343  -2.32288  -0.84758 H   0  0  0  0  0  0
   1.86473  -0.01968  -0.88091 H   0  0  0  0  0  0
   1.81763   0.00555   0.87272 H   0  0  0  0  0  0
  -0.14736  -0.93472  -0.88626 H   0  0  0  0  0  0
  -0.19587  -0.91210   0.82895 H   0  0  0  0  0  0
   0.94021  -3.12316   0.87311 H   0  0  0  0  0  0
   0.94336  -3.12636  -0.96293 H   0  0  0  0  0  0
  -1.52430  -2.99189  -0.88685 H   0  0  0  0  0  0
  -1.51532  -2.97721   0.81751 H   0  0  0  0  0  0
  -1.59896  -5.21189  -0.84242 H   0  0  0  0  0  0
  -1.63255  -5.19581   0.87153 H   0  0  0  0  0  0
   0.80866  -5.18877   0.93737 H   0  0  0  0  0  0
   0.84391  -5.16039  -0.88021 H   0  0  0  0  0  0
  -0.33659  -7.32958  -0.84353 H   0  0  0  0  0  0
  -0.32916  -7.37154   0.87161 H   0  0  0  0  0  0
   1.67063  -8.27891  -0.91564 H   0  0  0  0  0  0
   1.66723  -8.31676   0.82800 H   0  0  0  0  0  0
  19.82045  -8.26383   0.91175 H   0  0  0  0  0  0
  19.79125  -8.32098  -0.85519 H   0  0  0  0  0  0
  21.76764  -7.33007  -0.90885 H   0  0  0  0  0  0
  21.85451  -7.38086   0.80165 H   0  0  0  0  0  0
  20.67114  -5.21516   0.89822 H   0  0  0  0  0  0
  20.65387  -5.18718  -0.91070 H   0  0  0  0  0  0
  23.11003  -5.19724  -0.90564 H   0  0  0  0  0  0
  23.11132  -5.23666   0.83233 H   0  0  0  0  0  0
  22.99522  -2.96694  -0.83861 H   0  0  0  0  0  0
  22.96753  -3.01023   0.92002 H   0  0  0  0  0  0
  20.48620  -3.20852   0.94415 H   0  0  0  0  0  0
  20.52147  -3.19174  -0.88623 H   0  0  0  0  0  0
  21.55612  -0.96836  -0.86488 H   0  0  0  0  0  0
  21.52848  -0.96844   0.90503 H   0  0  0  0  0  0
  19.50733  -0.14572  -0.88750 H   0  0  0  0  0  0
  19.49925  -0.13636   0.87369 H   0  0  0  0  0  0
  18.51363  -2.47432   0.90775 H   0  0  0  0  0  0
  18.51500  -2.46076  -0.88245 H   0  0  0  0  0  0
  17.15536  -0.39461  -0.90263 H   0  0  0  0  0  0
  17.14760  -0.39064   0.89246 H   0  0  0  0  0  0
  16.01539  -2.62878   0.87374 H   0  0  0  0  0  0
  16.02089  -2.63517  -0.87486 H   0  0  0  0  0  0
  14.83623  -0.46907  -0.87530 H   0  0  0  0  0  0
  14.81887  -0.47123   0.86397 H   0  0  0  0  0  0
  13.38899  -2.51269   0.91107 H   0  0  0  0  0  0
  13.45510  -2.57892  -0.90175 H   0  0  0  0  0  0
  12.68628   0.17215  -0.06408 H   0  0  0  0  0  0
   8.41768  -3.83169  -0.27941 H   0  0  0  0  0  0
   8.29565  -3.40378   1.46543 H   0  0  0  0  0  0
   2.67011  -6.01400   0.92900 H   0  0  0  0  0  0
   2.67057  -5.93325  -0.88917 H   0  0  0  0  0  0
  18.80664  -5.99837  -0.90696 H   0  0  0  0  0  0
  18.80921  -5.97174   0.88001 H   0  0  0  0  0  0
   3.92428  -8.04793  -0.89679 H   0  0  0  0  0  0
   3.96431  -8.03149   0.89781 H   0  0  0  0  0  0
   5.09212  -5.79320   0.90688 H   0  0  0  0  0  0
   5.00167  -5.79500  -0.91407 H   0  0  0  0  0  0
   6.01975  -8.18550  -0.78476 H   0  0  0  0  0  0
   6.27661  -7.87020   0.89235 H   0  0  0  0  0  0
   7.20691  -5.59487  -0.62962 H   0  0  0  0  0  0
   7.61254  -6.98085  -1.54595 H   0  0  0  0  0  0
   9.30367  -7.43369  -0.23063 H   0  0  0  0  0  0
   8.24555  -7.86831   1.03342 H   0  0  0  0  0  0
   8.78795  -6.11579   2.34608 H   0  0  0  0  0  0
   7.65203  -5.26180   1.39778 H   0  0  0  0  0  0
  17.44906  -8.00827   0.91038 H   0  0  0  0  0  0
  17.45627  -8.04393  -0.87415 H   0  0  0  0  0  0
  16.50348  -5.78629  -0.90489 H   0  0  0  0  0  0
  16.50592  -5.75147   0.86017 H   0  0  0  0  0  0
  15.14311  -7.89379   0.87074 H   0  0  0  0  0  0
  15.14715  -7.91482  -0.92831 H   0  0  0  0  0  0
  14.30666  -5.61054  -0.87846 H   0  0  0  0  0  0
  14.34395  -5.58730   0.85942 H   0  0  0  0  0  0
  12.63332  -7.36628   0.89055 H   0  0  0  0  0  0
  12.56112  -7.32398  -0.94042 H   0  0  0  0  0  0
  12.23458  -4.80334  -0.79883 H   0  0  0  0  0  0
  12.38575  -4.80987   0.91798 H   0  0  0  0  0  0
  10.26083  -5.75639  -0.83749 H   0  0  0  0  0  0
  10.65428  -6.60536   0.68370 H   0  0  0  0  0  0
  10.29960  -4.49257   1.94335 H   0  0  0  0  0  0
  1  2  1  0  0  0
  1 28  1  0  0  0
  2  3  1  0  0  0
  3  4  1  0  0  0
  4  5  1  0  0  0
  5  6  1  0  0  0
  6  7  1  0  0  0
  7  8  1  0  0  0
  8  9  1  0  0  0
  9 10  1  0  0  0
 10 11  1  0  0  0
 11 12  1  0  0  0
 12 13  1  0  0  0
 13 32  1  0  0  0
 14 15  1  0  0  0
 14 33  1  0  0  0
 15 16  1  0  0  0
 16 17  1  0  0  0
 17 18  1  0  0  0
 18 19  1  0  0  0
 19 20  1  0  0  0
 20 21  1  0  0  0
 21 22  1  0  0  0
 22 23  1  0  0  0
 23 24  1  0  0  0
 24 25  1  0  0  0
 25 26  1  0  0  0
 26 27  1  0  0  0
 27 30  2  0  0  0
 28 29  2  0  0  0
 28 31  1  0  0  0
 29 30  2  0  0  0
 40 31  1  0  0  0
 32 34  1  0  0  0
 33 41  1  0  0  0
 34 35  1  0  0  0
 35 36  1  0  0  0
 36 37  1  0  0  0
 37 38  1  0  0  0
 38 39  1  0  0  0
 39 40  1  0  0  0
 40 47  1  0  0  0
 41 42  1  0  0  0
 42 43  1  0  0  0
 43 44  1  0  0  0
 44 45  1  0  0  0
 45 46  1  0  0  0
 46 47  1  0  0  0
 48  1  1  0  0  0
 49  1  1  0  0  0
 50  2  1  0  0  0
 51  2  1  0  0  0
 52  3  1  0  0  0
 53  3  1  0  0  0
 54  4  1  0  0  0
 55  4  1  0  0  0
 56  5  1  0  0  0
 57  5  1  0  0  0
 58  6  1  0  0  0
 59  6  1  0  0  0
 60  7  1  0  0  0
 61  7  1  0  0  0
 62  8  1  0  0  0
 63  8  1  0  0  0
 64  9  1  0  0  0
 65  9  1  0  0  0
 66 10  1  0  0  0
 67 10  1  0  0  0
 68 11  1  0  0  0
 69 11  1  0  0  0
 70 12  1  0  0  0
 71 12  1  0  0  0
 72 13  1  0  0  0
 73 13  1  0  0  0
 74 14  1  0  0  0
 75 14  1  0  0  0
 76 15  1  0  0  0
 77 15  1  0  0  0
 78 16  1  0  0  0
 79 16  1  0  0  0
 80 17  1  0  0  0
 81 17  1  0  0  0
 82 18  1  0  0  0
 83 18  1  0  0  0
 84 19  1  0  0  0
 85 19  1  0  0  0
 86 20  1  0  0  0
 87 20  1  0  0  0
 88 21  1  0  0  0
 89 21  1  0  0  0
 90 22  1  0  0  0
 91 22  1  0  0  0
 92 23  1  0  0  0
 93 23  1  0  0  0
 94 24  1  0  0  0
 95 24  1  0  0  0
 96 25  1  0  0  0
 97 25  1  0  0  0
 98 26  1  0  0  0
 99 26  1  0  0  0
100 27  1  0  0  0
101 31  1  0  0  0
102 31  1  0  0  0
103 32  1  0  0  0
104 32  1  0  0  0
105 33  1  0  0  0
106 33  1  0  0  0
107 34  1  0  0  0
108 34  1  0  0  0
109 35  1  0  0  0
110 35  1  0  0  0
111 36  1  0  0  0
112 36  1  0  0  0
113 37  1  0  0  0
114 37  1  0  0  0
115 38  1  0  0  0
116 38  1  0  0  0
117 39  1  0  0  0
118 39  1  0  0  0
119 41  1  0  0  0
120 41  1  0  0  0
121 42  1  0  0  0
122 42  1  0  0  0
123 43  1  0  0  0
124 43  1  0  0  0
125 44  1  0  0  0
126 44  1  0  0  0
127 45  1  0  0  0
128 45  1  0  0  0
129 46  1  0  0  0
130 46  1  0  0  0
131 47  1  0  0  0
132 47  1  0  0  0
133 40  1  0  0  0
M  END
