c:/temp/p-9-examples-stereo.sdf
__Jmol-14_05221704353D 1   1.00000     0.00000     0
Jmol version 14.16.1  2017-05-19 12:09 EXTRACT: ({0:43})
 44 46  0  0  0  0              1 V2000
   3.54032   3.30962   3.07527 C   0  0  0  0  0  0
   4.17945   3.29216   1.74991 C   0  0  0  0  0  0
   2.19416   3.16299   3.10388 C   0  0  0  0  0  0
   3.51533   3.94617   0.76070 C   0  0  0  0  0  0
   1.43276   3.22505   1.87097 C   0  0  0  0  0  0
   2.04504   3.80620   0.81282 C   0  0  0  0  0  0
   5.31303   2.27975   1.51697 C   0  0  0  0  0  0
   0.05976   2.55583   1.80837 C   0  0  0  0  0  0
   3.01463   1.11344  -1.08436 C   0  0  0  0  0  0
   3.74759   0.70492   0.11101 C   0  0  0  0  0  0
   1.66838   1.14961  -1.05857 C   0  0  0  0  0  0
   3.08466  -0.00904   1.04286 C   0  0  0  0  0  0
   0.99095   0.79799   0.18143 C   0  0  0  0  0  0
   1.63489   0.02683   1.07385 C   0  0  0  0  0  0
   5.15228   1.22314   0.36173 C   0  0  0  0  0  0
  -0.21553   1.62669   0.58172 C   0  0  0  0  0  0
   4.34943   3.70670   4.31964 C   0  0  0  0  0  0
   5.76165   4.26582   4.08549 C   0  0  0  0  0  0
   3.39621   5.13966   5.31819 Br  0  0  0  0  0  0
   4.08653   4.47453  -0.55532 C   0  0  0  0  0  0
   5.60850   4.56654  -0.70229 C   0  0  0  0  0  0
   3.42103   6.32433  -0.78289 Br  0  0  0  0  0  0
   1.63298   3.18249   4.03075 H   0  0  0  0  0  0
   1.50499   3.90767  -0.12071 H   0  0  0  0  0  0
   5.43275   1.69124   2.43703 H   0  0  0  0  0  0
   6.26848   2.80441   1.40797 H   0  0  0  0  0  0
  -0.72231   3.32094   1.87363 H   0  0  0  0  0  0
  -0.07095   1.94134   2.71048 H   0  0  0  0  0  0
   3.56064   1.37318  -1.98256 H   0  0  0  0  0  0
   1.09175   1.44574  -1.92642 H   0  0  0  0  0  0
   3.57841  -0.32218   1.95228 H   0  0  0  0  0  0
   1.18103  -0.21094   2.03208 H   0  0  0  0  0  0
   5.80845   0.37583   0.57172 H   0  0  0  0  0  0
   5.54564   1.63034  -0.57313 H   0  0  0  0  0  0
  -0.53406   2.25345  -0.26128 H   0  0  0  0  0  0
  -1.06406   0.96946   0.79046 H   0  0  0  0  0  0
   4.40390   2.86503   5.01784 H   0  0  0  0  0  0
   6.19940   4.66322   5.00493 H   0  0  0  0  0  0
   5.76423   5.08270   3.35125 H   0  0  0  0  0  0
   6.44382   3.48926   3.72800 H   0  0  0  0  0  0
   3.67438   3.92884  -1.41172 H   0  0  0  0  0  0
   5.89206   5.15272  -1.58527 H   0  0  0  0  0  0
   6.07903   3.59617  -0.83041 H   0  0  0  0  0  0
   6.07065   5.05423   0.16583 H   0  0  0  0  0  0
  2  1  1  0  0  0
  1  3  2  0  0  0
  1 17  1  0  0  0
  2  4  2  0  0  0
  2  7  1  0  0  0
  5  3  1  0  0  0
  4  6  1  0  0  0
  4 20  1  0  0  0
  5  6  2  0  0  0
  5  8  1  0  0  0
  7 15  1  0  0  0
  8 16  1  0  0  0
 10  9  1  0  0  0
  9 11  2  0  0  0
 10 12  2  0  0  0
 10 15  1  0  0  0
 13 11  1  0  0  0
 12 14  1  0  0  0
 13 14  2  0  0  0
 13 16  1  0  0  0
 17 18  1  0  0  0
 17 19  1  0  0  0
 20 21  1  0  0  0
 20 22  1  0  0  0
  3 23  1  0  0  0
  6 24  1  0  0  0
  7 25  1  0  0  0
  7 26  1  0  0  0
  8 27  1  0  0  0
  8 28  1  0  0  0
  9 29  1  0  0  0
 11 30  1  0  0  0
 12 31  1  0  0  0
 14 32  1  0  0  0
 15 33  1  0  0  0
 15 34  1  0  0  0
 16 35  1  0  0  0
 16 36  1  0  0  0
 17 37  1  0  0  0
 18 38  1  0  0  0
 18 39  1  0  0  0
 18 40  1  0  0  0
 20 41  1  0  0  0
 21 42  1  0  0  0
 21 43  1  0  0  0
 21 44  1  0  0  0
M  END
