c:/jmol-dev/bobtest/test185.mol
__Jmol-14_05031720193D 1   1.00000     0.00000     0
Jmol version 14.15.3  2017-04-30 15:40 EXTRACT: ({0:41})
 42 43  0  0  0  0              1 V2000
  -3.04137   1.39115  -3.31858 C   0  0  0  0  0  0
  -2.20918   0.51801  -2.32353 C   0  0  0  0  0  0
  -0.84850  -0.08418  -2.75585 C   0  0  0  0  0  0
   0.33927   0.75692  -2.38528 C   0  0  0  0  0  0
   1.42491   0.92374  -3.16434 C   0  0  0  0  0  0
   2.52641   1.89092  -2.83099 C   0  0  0  0  0  0
   3.08373   2.57389  -4.09411 C   0  0  0  0  0  0
   3.05478   4.10877  -4.07565 C   0  0  0  0  0  0
   1.68806   4.82374  -4.09746 C   0  0  0  0  0  0
   0.72143   4.48523  -5.25152 C   0  0  0  0  0  0
  -0.12125   3.22403  -4.99437 C   0  0  0  0  0  0
  -1.65457   3.36338  -5.14960 C   0  0  0  0  0  0
  -2.20598   2.03719  -5.58673 C   0  0  0  0  0  0
  -2.79040   1.14809  -4.77257 C   0  0  0  0  0  0
  -3.11653   2.89772  -2.98159 C   0  0  0  0  0  0
  -2.33139   3.89949  -3.86146 C   0  0  0  0  0  0
  -4.07291   1.04426  -3.16151 H   0  0  0  0  0  0
  -2.83925  -0.34420  -2.08937 H   0  0  0  0  0  0
  -2.10480   1.03536  -1.36596 H   0  0  0  0  0  0
  -0.83970  -0.34813  -3.81558 H   0  0  0  0  0  0
  -0.72838  -1.03309  -2.21643 H   0  0  0  0  0  0
   0.30195   1.25650  -1.42398 H   0  0  0  0  0  0
   1.48416   0.39427  -4.10779 H   0  0  0  0  0  0
   3.33575   1.32414  -2.35165 H   0  0  0  0  0  0
   2.19056   2.63123  -2.09923 H   0  0  0  0  0  0
   2.60486   2.21506  -5.00688 H   0  0  0  0  0  0
   4.13255   2.27661  -4.18873 H   0  0  0  0  0  0
   3.60990   4.45751  -3.19532 H   0  0  0  0  0  0
   3.63131   4.45566  -4.93638 H   0  0  0  0  0  0
   1.90447   5.89779  -4.16369 H   0  0  0  0  0  0
   1.18401   4.69167  -3.13796 H   0  0  0  0  0  0
   1.28972   4.36169  -6.17842 H   0  0  0  0  0  0
   0.06435   5.34172  -5.41549 H   0  0  0  0  0  0
   0.25744   2.43745  -5.65975 H   0  0  0  0  0  0
   0.05991   2.88594  -3.98271 H   0  0  0  0  0  0
  -1.85862   4.07594  -5.95407 H   0  0  0  0  0  0
  -2.06714   1.77164  -6.62747 H   0  0  0  0  0  0
  -3.11337   0.19911  -5.18156 H   0  0  0  0  0  0
  -2.89859   3.07966  -1.92637 H   0  0  0  0  0  0
  -4.17295   3.18475  -3.07430 H   0  0  0  0  0  0
  -1.61234   4.43565  -3.23755 H   0  0  0  0  0  0
  -3.04170   4.67598  -4.16427 H   0  0  0  0  0  0
  1  2  1  0  0  0
  1 14  1  0  0  0
  1 15  1  0  0  0
  2  3  1  0  0  0
  3  4  1  0  0  0
  4  5  2  0  0  0
  5  6  1  0  0  0
  6  7  1  0  0  0
  7  8  1  0  0  0
  8  9  1  0  0  0
  9 10  1  0  0  0
 10 11  1  0  0  0
 12 11  1  0  0  0
 12 13  1  0  0  0
 12 16  1  0  0  0
 13 14  2  0  0  0
 15 16  1  0  0  0
  1 17  1  0  0  0
  2 18  1  0  0  0
  2 19  1  0  0  0
  3 20  1  0  0  0
  3 21  1  0  0  0
  4 22  1  0  0  0
  5 23  1  0  0  0
  6 24  1  0  0  0
  6 25  1  0  0  0
  7 26  1  0  0  0
  7 27  1  0  0  0
  8 28  1  0  0  0
  8 29  1  0  0  0
  9 30  1  0  0  0
  9 31  1  0  0  0
 10 32  1  0  0  0
 10 33  1  0  0  0
 11 34  1  0  0  0
 11 35  1  0  0  0
 12 36  1  0  0  0
 13 37  1  0  0  0
 14 38  1  0  0  0
 15 39  1  0  0  0
 15 40  1  0  0  0
 16 41  1  0  0  0
 16 42  1  0  0  0
M  END
