c:/jmol-dev/bobtest/cip/testSuites/3D/test215.mol
__Jmol-14_05211706563D 1   1.00000     0.00000     0
Jmol version 14.16.1  2017-05-19 12:09 EXTRACT: ({0:167})
168172  0  0  0  0              1 V2000
  12.71811  -8.41014   1.05922 C   0  0  0  0  0  0
  12.73359 -10.01930   1.55227 C   0  0  0  0  0  0
  11.61920  -7.94798   0.98067 C   0  0  0  0  0  0
  11.45582 -10.53626   1.99246 C   0  0  0  0  0  0
  10.42200  -8.21622   1.49342 C   0  0  0  0  0  0
  10.25223  -9.74718   1.96295 C   0  0  0  0  0  0
  13.87625  -7.34882   0.58693 O   0  0  0  0  0  0
   9.48741  -6.89447   1.44050 O   0  0  0  0  0  0
   8.79094 -10.22070   2.40309 C   0  0  0  0  0  0
  14.08057 -10.51048   2.19933 C   0  0  0  0  0  0
  15.71835 -12.28089   2.97542 C   0  0  0  0  0  0
  14.62075 -11.94677   2.12567 C   0  0  0  0  0  0
  16.31953 -13.50027   2.98397 C   0  0  0  0  0  0
  14.07824 -13.00697   1.33768 C   0  0  0  0  0  0
  15.73335 -14.51275   2.27306 C   0  0  0  0  0  0
  14.58237 -14.33308   1.45151 C   0  0  0  0  0  0
  16.24911 -11.43979   3.93822 O   0  0  0  0  0  0
  16.26819 -15.76117   2.51699 O   0  0  0  0  0  0
  14.06855 -15.98277   1.06723 C   0  0  0  0  0  0
  12.37527 -17.16308   2.08648 C   0  0  0  0  0  0
  12.50305 -15.99825   1.28297 C   0  0  0  0  0  0
  11.20400 -17.53599   2.67221 C   0  0  0  0  0  0
  11.29520 -15.32004   0.93179 C   0  0  0  0  0  0
  10.07146 -16.80045   2.41051 C   0  0  0  0  0  0
  10.04363 -15.74240   1.47169 C   0  0  0  0  0  0
  13.42384 -18.02934   2.35449 O   0  0  0  0  0  0
   8.91647 -17.20449   3.05032 O   0  0  0  0  0  0
   8.64996 -15.32919   0.94598 C   0  0  0  0  0  0
   6.69155 -11.69123   1.88770 C   0  0  0  0  0  0
   8.12159 -11.55268   1.85481 C   0  0  0  0  0  0
   5.99911 -12.70350   1.27272 C   0  0  0  0  0  0
   8.80355 -12.73058   1.41159 C   0  0  0  0  0  0
   6.68977 -13.79266   0.83439 C   0  0  0  0  0  0
   8.09497 -13.89620   0.96959 C   0  0  0  0  0  0
   5.87977 -10.85603   2.62949 O   0  0  0  0  0  0
   5.93084 -14.87720   0.41880 O   0  0  0  0  0  0
  15.27393  -9.47408   2.11736 C   0  0  0  0  0  0
  15.06224  -8.34013   3.12928 C   0  0  0  0  0  0
  16.00249  -7.16658   2.92003 C   0  0  0  0  0  0
  15.50989  -5.95065   3.70266 C   0  0  0  0  0  0
  16.48566  -4.79329   3.56671 C   0  0  0  0  0  0
  15.95009  -3.50631   4.18610 C   0  0  0  0  0  0
  17.01100  -2.41479   4.09482 C   0  0  0  0  0  0
  16.52422  -1.07617   4.62819 C   0  0  0  0  0  0
  17.62335  -0.03042   4.54030 C   0  0  0  0  0  0
  14.49651 -16.32783  -0.40362 C   0  0  0  0  0  0
  15.85264 -16.97150  -0.01759 C   0  0  0  0  0  0
  16.52557 -18.05688  -0.85023 C   0  0  0  0  0  0
  17.98448 -17.66750  -1.13705 C   0  0  0  0  0  0
  19.00224 -18.64322  -0.55882 C   0  0  0  0  0  0
  20.41858 -18.17850  -0.89482 C   0  0  0  0  0  0
  21.46203 -19.21942  -0.51661 C   0  0  0  0  0  0
  22.82484 -18.89004  -1.12785 C   0  0  0  0  0  0
  23.78742 -20.04975  -0.94576 C   0  0  0  0  0  0
   8.24581 -16.27256  -0.24868 C   0  0  0  0  0  0
   7.72034 -17.63159   0.28927 C   0  0  0  0  0  0
   6.76865 -18.42785  -0.61040 C   0  0  0  0  0  0
   7.23930 -19.88033  -0.81454 C   0  0  0  0  0  0
   6.11455 -20.89834  -0.62135 C   0  0  0  0  0  0
   6.59352 -22.32882  -0.88290 C   0  0  0  0  0  0
   5.45969 -23.33748  -0.69162 C   0  0  0  0  0  0
   5.86088 -24.74338  -1.14330 C   0  0  0  0  0  0
   4.68219 -25.70187  -1.06117 C   0  0  0  0  0  0
   7.73655  -9.04627   2.15955 C   0  0  0  0  0  0
   7.22708  -8.43346   3.48139 C   0  0  0  0  0  0
   6.04379  -7.48500   3.25731 C   0  0  0  0  0  0
   4.76873  -7.96434   3.95753 C   0  0  0  0  0  0
   3.58926  -7.06460   3.61100 C   0  0  0  0  0  0
   2.30217  -7.48329   4.32395 C   0  0  0  0  0  0
   1.21307  -6.44413   4.05654 C   0  0  0  0  0  0
  -0.10759  -6.78617   4.73625 C   0  0  0  0  0  0
  -1.11766  -5.66596   4.54071 C   0  0  0  0  0  0
  11.68886  -6.92239   0.64495 H   0  0  0  0  0  0
  11.42799 -11.50110   2.48144 H   0  0  0  0  0  0
  13.87362  -6.37874   0.64548 H   0  0  0  0  0  0
   9.56752  -6.09216   0.90410 H   0  0  0  0  0  0
   8.87854 -10.38355   3.48095 H   0  0  0  0  0  0
  13.78218 -10.47565   3.25186 H   0  0  0  0  0  0
  17.15899 -13.68479   3.64400 H   0  0  0  0  0  0
  13.22148 -12.81126   0.69649 H   0  0  0  0  0  0
  15.50677 -11.00645   4.38511 H   0  0  0  0  0  0
  17.23837 -15.65942   2.57161 H   0  0  0  0  0  0
  11.18473 -18.39915   3.32425 H   0  0  0  0  0  0
  11.32601 -14.50376   0.21573 H   0  0  0  0  0  0
  14.07667 -17.53158   2.88423 H   0  0  0  0  0  0
   9.01375 -18.14897   3.27094 H   0  0  0  0  0  0
   4.91311 -12.70233   1.26447 H   0  0  0  0  0  0
   9.88352 -12.78661   1.50127 H   0  0  0  0  0  0
   5.03308 -10.74231   2.15816 H   0  0  0  0  0  0
   4.99638 -14.72282   0.62450 H   0  0  0  0  0  0
  15.44724  -9.10927   1.10604 H   0  0  0  0  0  0
  16.25871  -9.89957   2.32178 H   0  0  0  0  0  0
  15.19921  -8.72701   4.14723 H   0  0  0  0  0  0
  14.02942  -7.97997   3.08923 H   0  0  0  0  0  0
  16.05328  -6.91295   1.85777 H   0  0  0  0  0  0
  17.01858  -7.44545   3.23318 H   0  0  0  0  0  0
  15.38596  -6.20594   4.76501 H   0  0  0  0  0  0
  14.52498  -5.65163   3.33103 H   0  0  0  0  0  0
  16.69782  -4.61832   2.50411 H   0  0  0  0  0  0
  17.43435  -5.06665   4.03505 H   0  0  0  0  0  0
  15.67847  -3.67590   5.23203 H   0  0  0  0  0  0
  15.03649  -3.19034   3.66251 H   0  0  0  0  0  0
  17.32405  -2.29508   3.04967 H   0  0  0  0  0  0
  17.90308  -2.73102   4.65295 H   0  0  0  0  0  0
  16.20702  -1.18120   5.67391 H   0  0  0  0  0  0
  15.65410  -0.73917   4.06065 H   0  0  0  0  0  0
  17.94858   0.11209   3.50261 H   0  0  0  0  0  0
  18.49443  -0.32553   5.13068 H   0  0  0  0  0  0
  17.26833   0.93007   4.91778 H   0  0  0  0  0  0
  14.62556 -15.62922  -1.23450 H   0  0  0  0  0  0
  13.81315 -17.11593  -0.74840 H   0  0  0  0  0  0
  15.75140 -17.45261   0.95488 H   0  0  0  0  0  0
  16.54084 -16.13439   0.12324 H   0  0  0  0  0  0
  15.98232 -18.30566  -1.76278 H   0  0  0  0  0  0
  16.50840 -18.98685  -0.26586 H   0  0  0  0  0  0
  18.22684 -16.67649  -0.73310 H   0  0  0  0  0  0
  18.11863 -17.58741  -2.22086 H   0  0  0  0  0  0
  18.82199 -19.64346  -0.97094 H   0  0  0  0  0  0
  18.88624 -18.71750   0.53059 H   0  0  0  0  0  0
  20.63599 -17.23097  -0.39246 H   0  0  0  0  0  0
  20.47824 -17.98027  -1.97342 H   0  0  0  0  0  0
  21.13739 -20.20192  -0.86701 H   0  0  0  0  0  0
  21.54409 -19.28369   0.57667 H   0  0  0  0  0  0
  23.23612 -17.98813  -0.66751 H   0  0  0  0  0  0
  22.71899 -18.68697  -2.19711 H   0  0  0  0  0  0
  23.40515 -20.95661  -1.42936 H   0  0  0  0  0  0
  23.94504 -20.26820   0.11103 H   0  0  0  0  0  0
  24.75744 -19.81488  -1.39581 H   0  0  0  0  0  0
   9.10266 -16.45939  -0.90085 H   0  0  0  0  0  0
   7.50524 -15.81935  -0.91323 H   0  0  0  0  0  0
   7.16371 -17.47186   1.22014 H   0  0  0  0  0  0
   8.58333 -18.24112   0.56191 H   0  0  0  0  0  0
   6.63333 -17.93781  -1.57685 H   0  0  0  0  0  0
   5.78184 -18.42488  -0.13451 H   0  0  0  0  0  0
   8.05192 -20.14053  -0.13518 H   0  0  0  0  0  0
   7.64975 -19.97263  -1.82731 H   0  0  0  0  0  0
   5.28777 -20.66067  -1.29356 H   0  0  0  0  0  0
   5.72448 -20.82447   0.40195 H   0  0  0  0  0  0
   7.42491 -22.57792  -0.21054 H   0  0  0  0  0  0
   6.97997 -22.39754  -1.90369 H   0  0  0  0  0  0
   4.58497 -23.01267  -1.26126 H   0  0  0  0  0  0
   5.16144 -23.35918   0.36070 H   0  0  0  0  0  0
   6.68201 -25.11671  -0.52601 H   0  0  0  0  0  0
   6.21972 -24.71536  -2.17468 H   0  0  0  0  0  0
   3.85340 -25.36685  -1.68906 H   0  0  0  0  0  0
   4.31818 -25.79149  -0.03085 H   0  0  0  0  0  0
   4.98086 -26.70099  -1.39987 H   0  0  0  0  0  0
   6.88905  -9.34175   1.54288 H   0  0  0  0  0  0
   8.06556  -8.26679   1.47472 H   0  0  0  0  0  0
   8.03516  -7.88363   3.96755 H   0  0  0  0  0  0
   6.95308  -9.22377   4.19168 H   0  0  0  0  0  0
   5.84883  -7.35031   2.18558 H   0  0  0  0  0  0
   6.30680  -6.49628   3.63942 H   0  0  0  0  0  0
   4.92867  -7.96908   5.04485 H   0  0  0  0  0  0
   4.53084  -8.98832   3.66760 H   0  0  0  0  0  0
   3.42461  -7.07591   2.52521 H   0  0  0  0  0  0
   3.83728  -6.03524   3.87847 H   0  0  0  0  0  0
   2.47961  -7.56487   5.39931 H   0  0  0  0  0  0
   1.98188  -8.46786   3.97154 H   0  0  0  0  0  0
   1.05360  -6.34722   2.98053 H   0  0  0  0  0  0
   1.55759  -5.46411   4.41131 H   0  0  0  0  0  0
   0.04665  -6.94738   5.80485 H   0  0  0  0  0  0
  -0.51119  -7.71944   4.32245 H   0  0  0  0  0  0
  -1.31637  -5.49438   3.47595 H   0  0  0  0  0  0
  -0.75234  -4.73020   4.97147 H   0  0  0  0  0  0
  -2.06301  -5.91396   5.02533 H   0  0  0  0  0  0
  14.52670 -16.61212   1.79611 H   0  0  0  0  0  0
   8.01474 -15.66415   1.76892 H   0  0  0  0  0  0
  1  2  1  0  0  0
  1  3  2  0  0  0
  1  7  1  0  0  0
  2  4  2  0  0  0
  2 10  1  0  0  0
  3  5  1  0  0  0
  4  6  1  0  0  0
  5  6  2  0  0  0
  5  8  1  0  0  0
  6  9  1  0  0  0
  9 30  1  0  0  0
  9 64  1  0  0  0
 10 12  1  0  0  0
 10 37  1  0  0  0
 11 12  1  0  0  0
 11 13  2  0  0  0
 11 17  1  0  0  0
 12 14  2  0  0  0
 13 15  1  0  0  0
 14 16  1  0  0  0
 15 16  2  0  0  0
 15 18  1  0  0  0
 16 19  1  0  0  0
 19 21  1  0  0  0
 19 46  1  0  0  0
 20 21  1  0  0  0
 20 22  2  0  0  0
 20 26  1  0  0  0
 21 23  2  0  0  0
 22 24  1  0  0  0
 23 25  1  0  0  0
 24 25  2  0  0  0
 24 27  1  0  0  0
 25 28  1  0  0  0
 28 34  1  0  0  0
 28 55  1  0  0  0
 29 30  1  0  0  0
 29 31  2  0  0  0
 29 35  1  0  0  0
 30 32  2  0  0  0
 31 33  1  0  0  0
 32 34  1  0  0  0
 33 34  2  0  0  0
 33 36  1  0  0  0
 37 38  1  0  0  0
 38 39  1  0  0  0
 39 40  1  0  0  0
 40 41  1  0  0  0
 41 42  1  0  0  0
 42 43  1  0  0  0
 43 44  1  0  0  0
 44 45  1  0  0  0
 46 47  1  0  0  0
 47 48  1  0  0  0
 48 49  1  0  0  0
 49 50  1  0  0  0
 50 51  1  0  0  0
 51 52  1  0  0  0
 52 53  1  0  0  0
 53 54  1  0  0  0
 55 56  1  0  0  0
 56 57  1  0  0  0
 57 58  1  0  0  0
 58 59  1  0  0  0
 59 60  1  0  0  0
 60 61  1  0  0  0
 61 62  1  0  0  0
 62 63  1  0  0  0
 64 65  1  0  0  0
 65 66  1  0  0  0
 66 67  1  0  0  0
 67 68  1  0  0  0
 68 69  1  0  0  0
 69 70  1  0  0  0
 70 71  1  0  0  0
 71 72  1  0  0  0
  3 73  1  0  0  0
  4 74  1  0  0  0
  7 75  1  0  0  0
  8 76  1  0  0  0
  9 77  1  0  0  0
 10 78  1  0  0  0
 13 79  1  0  0  0
 14 80  1  0  0  0
 17 81  1  0  0  0
 18 82  1  0  0  0
 22 83  1  0  0  0
 23 84  1  0  0  0
 26 85  1  0  0  0
 27 86  1  0  0  0
 31 87  1  0  0  0
 32 88  1  0  0  0
 35 89  1  0  0  0
 36 90  1  0  0  0
 37 91  1  0  0  0
 37 92  1  0  0  0
 38 93  1  0  0  0
 38 94  1  0  0  0
 39 95  1  0  0  0
 39 96  1  0  0  0
 40 97  1  0  0  0
 40 98  1  0  0  0
 41 99  1  0  0  0
 41100  1  0  0  0
 42101  1  0  0  0
 42102  1  0  0  0
 43103  1  0  0  0
 43104  1  0  0  0
 44105  1  0  0  0
 44106  1  0  0  0
 45107  1  0  0  0
 45108  1  0  0  0
 45109  1  0  0  0
 46110  1  0  0  0
 46111  1  0  0  0
 47112  1  0  0  0
 47113  1  0  0  0
 48114  1  0  0  0
 48115  1  0  0  0
 49116  1  0  0  0
 49117  1  0  0  0
 50118  1  0  0  0
 50119  1  0  0  0
 51120  1  0  0  0
 51121  1  0  0  0
 52122  1  0  0  0
 52123  1  0  0  0
 53124  1  0  0  0
 53125  1  0  0  0
 54126  1  0  0  0
 54127  1  0  0  0
 54128  1  0  0  0
 55129  1  0  0  0
 55130  1  0  0  0
 56131  1  0  0  0
 56132  1  0  0  0
 57133  1  0  0  0
 57134  1  0  0  0
 58135  1  0  0  0
 58136  1  0  0  0
 59137  1  0  0  0
 59138  1  0  0  0
 60139  1  0  0  0
 60140  1  0  0  0
 61141  1  0  0  0
 61142  1  0  0  0
 62143  1  0  0  0
 62144  1  0  0  0
 63145  1  0  0  0
 63146  1  0  0  0
 63147  1  0  0  0
 64148  1  0  0  0
 64149  1  0  0  0
 65150  1  0  0  0
 65151  1  0  0  0
 66152  1  0  0  0
 66153  1  0  0  0
 67154  1  0  0  0
 67155  1  0  0  0
 68156  1  0  0  0
 68157  1  0  0  0
 69158  1  0  0  0
 69159  1  0  0  0
 70160  1  0  0  0
 70161  1  0  0  0
 71162  1  0  0  0
 71163  1  0  0  0
 72164  1  0  0  0
 72165  1  0  0  0
 72166  1  0  0  0
167 19  1  0  0  0
168 28  1  0  0  0
M  END
