c:/jmol-dev/bobtest/test7s.mol
__Jmol-14_04211706303D 1   1.00000     0.00000     0
Jmol version 14.14.1  2017-04-17 21:08 EXTRACT: ({0:26 31:33})
 30 32  0  0  0  0              1 V2000
   0.72547  -3.39245   1.55043 C   0  0  0  0  0  0
   1.86874  -2.34992   1.43192 C   0  0  0  0  0  0
   2.01636  -1.73115   0.02398 C   0  0  0  0  0  0
   3.22856  -2.85942   2.01422 C   0  0  0  0  0  0
   4.45853  -2.85962   1.04345 C   0  0  0  0  0  0
   4.57838  -1.70181   0.06024 C   0  0  0  0  0  0
   3.28446  -0.90508  -0.12066 C   0  0  0  0  0  0
   0.92911  -4.38313   2.69673 C   0  0  0  0  0  0
   2.16206  -5.26129   2.50554 C   0  0  0  0  0  0
   3.39071  -4.42427   2.16416 C   0  0  0  0  0  0
   3.92398  -4.48859   0.40871 S   0  0  0  0  0  0
   0.49776  -4.11029   0.33523 O   0  0  0  0  0  0
   3.48172  -2.10928   3.22150 O   0  0  0  0  0  0
   4.98637  -2.03403  -0.89881 H   0  0  0  0  0  0
   5.32153  -1.00231   0.45617 H   0  0  0  0  0  0
   3.25895  -0.09128   0.61515 H   0  0  0  0  0  0
   3.30310  -0.41544  -1.10225 H   0  0  0  0  0  0
   0.05847  -5.03715   2.78577 H   0  0  0  0  0  0
   1.01127  -3.83274   3.64272 H   0  0  0  0  0  0
   1.97446  -6.03589   1.75813 H   0  0  0  0  0  0
   2.34106  -5.79808   3.44155 H   0  0  0  0  0  0
   1.32706  -4.54066   0.06752 H   0  0  0  0  0  0
  -0.20934  -2.84896   1.73433 H   0  0  0  0  0  0
   1.14790  -1.08785  -0.16811 H   0  0  0  0  0  0
   2.00231  -2.48931  -0.76585 H   0  0  0  0  0  0
   5.41570  -2.96396   1.56456 H   0  0  0  0  0  0
   4.21319  -4.70398   2.83042 H   0  0  0  0  0  0
   1.42838  -1.21591   2.30947 O   0  0  0  0  0  0
   3.47246  -1.17405   2.93892 H   0  0  0  0  0  0
   2.11785  -0.49186   2.28965 H   0  0  0  0  0  0
  3  2  1  0  0  0
  3  7  1  0  0  0
  5  6  1  0  0  0
  6  7  1  0  0  0
  2  4  1  0  0  0
  2  1  1  0  0  0
  1  8  1  0  0  0
  8  9  1  0  0  0
  9 10  1  0  0  0
  5  4  1  0  0  0
  4 10  1  0  0  0
  5 11  1  0  0  0
 10 11  1  0  0  0
  1 12  1  0  0  0
  4 13  1  0  0  0
  6 14  1  0  0  0
  6 15  1  0  0  0
  7 16  1  0  0  0
  7 17  1  0  0  0
  8 18  1  0  0  0
  8 19  1  0  0  0
  9 20  1  0  0  0
  9 21  1  0  0  0
 12 22  1  0  0  0
 23  1  1  0  0  0
 24  3  1  0  0  0
 25  3  1  0  0  0
 26  5  1  0  0  0
 27 10  1  0  0  0
 28  2  1  0  0  0
 29 13  1  0  0  0
 30 28  1  0  0  0
M  END
