c:/jmol-dev/bobtest/test215b.mol
__Jmol-14_05061713053D 1   1.00000     0.00000     0
Jmol version 14.15.3  2017-04-30 15:40 EXTRACT: ({0:7 9:17 19:37 44 47:56 58 59 63:68 74:78})
 60 60  0  0  0  0              1 V2000
  12.15407   0.44069  10.79818 C   0  0  0  0  0  0
  10.25532  -0.38056   9.46758 C   0  0  0  0  0  0
   9.13830  -1.20274  10.11753 C   0  0  0  0  0  0
  13.27786   1.46815  10.80730 C   0  0  0  0  0  0
  14.37862   0.95120  11.76247 C   0  0  0  0  0  0
  14.89549  -0.49010  11.52668 C   0  0  0  0  0  0
  15.82115  -0.91095  12.67263 C   0  0  0  0  0  0
  16.27162  -2.39235  12.72973 C   0  0  0  0  0  0
  13.43178  -4.05374  11.92973 C   0  0  0  0  0  0
  12.18462  -4.97608  11.96397 C   0  0  0  0  0  0
   9.52813  -2.71067  10.05188 C   0  0  0  0  0  0
  10.69843  -3.07067  11.00601 C   0  0  0  0  0  0
  11.07804  -4.55248  10.96134 C   0  0  0  0  0  0
  13.81482   1.71883   9.38817 C   0  0  0  0  0  0
  16.73621  -2.94849  11.38457 C   0  0  0  0  0  0
  12.54735  -6.44293  11.70563 C   0  0  0  0  0  0
   7.82453  -0.92908   9.38357 C   0  0  0  0  0  0
  14.61162   2.46441   9.39887 H   0  0  0  0  0  0
  13.03173   2.09020   8.72270 H   0  0  0  0  0  0
  14.21997   0.80552   8.93374 H   0  0  0  0  0  0
  17.21793  -3.91994  11.51088 H   0  0  0  0  0  0
  17.47525  -2.27768  10.92799 H   0  0  0  0  0  0
  15.91395  -3.06192  10.67244 H   0  0  0  0  0  0
  11.65106  -7.07529  11.70877 H   0  0  0  0  0  0
  13.21922  -6.84011  12.46823 H   0  0  0  0  0  0
  13.03643  -6.56555  10.73072 H   0  0  0  0  0  0
   7.52730   0.12109   9.50210 H   0  0  0  0  0  0
   7.01641  -1.55030   9.77522 H   0  0  0  0  0  0
   7.91232  -1.12970   8.31189 H   0  0  0  0  0  0
  13.96056   0.99497  12.77206 H   0  0  0  0  0  0
  15.22417   1.64863  11.75433 H   0  0  0  0  0  0
  15.41991  -0.55001  10.56925 H   0  0  0  0  0  0
  14.06853  -1.20232  11.48056 H   0  0  0  0  0  0
   9.82077  -2.96247   9.02436 H   0  0  0  0  0  0
   8.66439  -3.33685  10.28687 H   0  0  0  0  0  0
  11.58601  -2.50187  10.73370 H   0  0  0  0  0  0
  11.75613  -4.91406  12.97509 H   0  0  0  0  0  0
  15.36011  -0.64376  13.62626 H   0  0  0  0  0  0
  16.71912  -0.28506  12.60311 H   0  0  0  0  0  0
  10.18342  -5.15004  11.15282 H   0  0  0  0  0  0
  11.39623  -4.80166   9.94080 H   0  0  0  0  0  0
  12.89658   2.41321  11.19869 H   0  0  0  0  0  0
   9.01270  -0.91791  11.16434 H   0  0  0  0  0  0
  10.44787  -2.77500  12.02794 H   0  0  0  0  0  0
  14.56821  -4.47621  12.87463 C   0  0  0  0  0  0
  13.11601  -3.05059  12.21181 H   0  0  0  0  0  0
  13.81557  -3.98702  10.90381 H   0  0  0  0  0  0
  14.14991  -5.07906  13.68496 H   0  0  0  0  0  0
  15.31050  -3.30709  13.54740 C   0  0  0  0  0  0
  17.17793  -2.35400  13.33944 H   0  0  0  0  0  0
  15.92009  -3.76272  14.34022 H   0  0  0  0  0  0
  14.58158  -2.69984  14.08983 H   0  0  0  0  0  0
  15.27336  -5.13413  12.35037 H   0  0  0  0  0  0
  10.79858   0.84793  10.19443 C   0  0  0  0  0  0
  10.06553  -0.15955   8.41345 H   0  0  0  0  0  0
  10.11596   1.20840  10.96823 H   0  0  0  0  0  0
  10.91904   1.66583   9.47377 H   0  0  0  0  0  0
  11.96357   0.05793  11.80573 H   0  0  0  0  0  0
  12.57778  -0.39237  10.23482 H   0  0  0  0  0  0
  11.07645  -1.06839   9.46620 H   0  0  0  0  0  0
  2  3  1  0  0  0
  3 11  1  0  0  0
  3 17  1  0  0  0
  4  5  1  0  0  0
  4 14  1  0  0  0
  5  6  1  0  0  0
  6  7  1  0  0  0
  7  8  1  0  0  0
  8 15  1  0  0  0
 10 13  1  0  0  0
 10 16  1  0  0  0
 11 12  1  0  0  0
 12 13  1  0  0  0
 18 14  1  0  0  0
 19 14  1  0  0  0
 20 14  1  0  0  0
 21 15  1  0  0  0
 22 15  1  0  0  0
 23 15  1  0  0  0
 24 16  1  0  0  0
 25 16  1  0  0  0
 26 16  1  0  0  0
 27 17  1  0  0  0
 28 17  1  0  0  0
 29 17  1  0  0  0
 30  5  1  0  0  0
 31  5  1  0  0  0
 32  6  1  0  0  0
 33  6  1  0  0  0
 34 11  1  0  0  0
 35 11  1  0  0  0
 36 12  1  0  0  0
  1  4  1  0  0  0
  9 10  1  0  0  0
 37 10  1  0  0  0
 38  7  1  0  0  0
 39  7  1  0  0  0
 40 13  1  0  0  0
 41 13  1  0  0  0
 42  4  1  0  0  0
 43  3  1  0  0  0
 44 12  1  0  0  0
 45  9  1  0  0  0
 46  9  1  0  0  0
 47  9  1  0  0  0
 48 45  1  0  0  0
 49 45  1  0  0  0
  8 49  1  0  0  0
 50  8  1  0  0  0
 51 49  1  0  0  0
 52 49  1  0  0  0
 53 45  1  0  0  0
 54  2  1  0  0  0
 55  2  1  0  0  0
 54  1  1  0  0  0
 56 54  1  0  0  0
 57 54  1  0  0  0
 58  1  1  0  0  0
 59  1  1  0  0  0
 60  2  1  0  0  0
M  END
