
 OpenBabel10081013313D

 47 46  0  0  0  0  0  0  0  0999 V2000
   -1.0109    0.7760   -0.1382 C   0  0  0  0  0
    0.5006    0.2878    0.0046 C   0  0  0  0  0
   -1.5139    2.2790   -0.2168 C   0  0  0  0  0
   -1.5561    0.3274    0.7073 Cl  0  0  0  0  0
   -1.4144    0.2717   -1.0261 H   0  0  0  0  0
    1.1929    1.0240    1.1916 C   0  0  0  0  0
    1.2545    0.5259   -1.3407 C   0  0  0  0  0
    0.4613   -1.2521    0.3279 C   0  0  0  0  0
    1.4899    2.0253    0.8658 F   0  0  0  0  0
    2.4075    0.3808    1.8595 C   0  0  0  0  0
    0.4572    1.1394    1.9984 H   0  0  0  0  0
    3.2441    0.2354    1.1751 Cl  0  0  0  0  0
    2.1610   -0.5810    2.3158 H   0  0  0  0  0
    2.7628    1.0319    2.6663 F   0  0  0  0  0
    1.2171    1.5780   -1.6080 H   0  0  0  0  0
    0.7300   -0.0054   -2.1457 F   0  0  0  0  0
    2.7254    0.1416   -1.4209 C   0  0  0  0  0
    3.3436    0.8614   -0.8736 F   0  0  0  0  0
    3.0575    0.1825   -2.4645 Cl  0  0  0  0  0
    2.9241   -0.8638   -1.0509 H   0  0  0  0  0
   -0.0260   -1.3968    1.3009 F   0  0  0  0  0
    1.4801   -1.6402    0.4414 H   0  0  0  0  0
   -0.2397   -2.1590   -0.6805 C   0  0  0  0  0
   -1.2998   -1.9133   -0.7871 F   0  0  0  0  0
   -0.1849   -3.1980   -0.3367 Cl  0  0  0  0  0
    0.2343   -2.1190   -1.6642 H   0  0  0  0  0
   -1.2837    3.0250    1.1360 C   0  0  0  0  0
   -3.0519    2.1964   -0.4431 C   0  0  0  0  0
   -0.9055    3.1037   -1.3810 C   0  0  0  0  0
   -1.6939    2.4179    1.9541 H   0  0  0  0  0
   -1.8687    4.4314    1.2589 C   0  0  0  0  0
   -0.2171    3.1386    1.3274 F   0  0  0  0  0
   -2.9409    4.4594    1.0544 H   0  0  0  0  0
   -1.3624    5.1329    0.5889 Cl  0  0  0  0  0
   -1.7204    4.8011    2.2795 F   0  0  0  0  0
   -3.5605    1.8416    0.4591 F   0  0  0  0  0
   -3.3079    1.5076   -1.2558 H   0  0  0  0  0
   -3.4799    3.1703   -0.7036 C   0  0  0  0  0
    0.1653    3.2486   -1.2138 H   0  0  0  0  0
   -1.3277    4.1162   -1.3742 F   0  0  0  0  0
   -1.1547    2.5582   -2.7843 C   0  0  0  0  0
   -0.8736    1.5092   -2.8877 H   0  0  0  0  0
   -0.5737    3.1329   -3.5131 F   0  0  0  0  0
   -2.2089    2.6536   -3.0622 Cl  0  0  0  0  0
   -3.2531    3.8776    0.0666 Cl  0  0  0  0  0
   -4.5392    3.0874   -0.8301 F   0  0  0  0  0
   -3.0544    3.5062   -1.6261 H   0  0  0  0  0
  1  2  1  0  0  0
  1  3  1  0  0  0
  1  4  1  0  0  0
  1  5  1  0  0  0
  2  6  1  0  0  0
  2  7  1  0  0  0
  2  8  1  0  0  0
  3 27  1  0  0  0
  3 28  1  0  0  0
  3 29  1  0  0  0
  6  9  1  0  0  0
  6 10  1  0  0  0
  6 11  1  0  0  0
  7 15  1  0  0  0
  7 16  1  0  0  0
  7 17  1  0  0  0
  8 21  1  0  0  0
  8 22  1  0  0  0
  8 23  1  0  0  0
 10 12  1  0  0  0
 10 13  1  0  0  0
 10 14  1  0  0  0
 17 18  1  0  0  0
 17 19  1  0  0  0
 17 20  1  0  0  0
 23 24  1  0  0  0
 23 25  1  0  0  0
 23 26  1  0  0  0
 27 30  1  0  0  0
 27 31  1  0  0  0
 27 32  1  0  0  0
 28 36  1  0  0  0
 28 37  1  0  0  0
 28 38  1  0  0  0
 29 39  1  0  0  0
 29 40  1  0  0  0
 29 41  1  0  0  0
 31 33  1  0  0  0
 31 34  1  0  0  0
 31 35  1  0  0  0
 38 45  1  0  0  0
 38 46  1  0  0  0
 38 47  1  0  0  0
 41 42  1  0  0  0
 41 43  1  0  0  0
 41 44  1  0  0  0
M  END
