CIP:MM;BB:
__Jmol-14_05291708123D 1   1.00000     0.00000     0
Jmol version 14.17.2  2017-05-27 15:31 EXTRACT: ({0:6})
  7  6  0  0  0  0              1 V2000
   3.70025  -0.26748   1.54745 C   0  0  0  0  0  0
   2.26320  -0.33566   1.49650 C   0  0  0  0  0  0
   0.82548  -0.40370   1.44530 C   0  0  0  0  0  0
   4.35110   0.60775   0.78628 F   0  0  0  0  0  0
   4.24896  -0.88372   2.25815 H   0  0  0  0  0  0
  -0.13474   0.72826   2.37197 Cl  0  0  0  0  0  0
   0.33993  -1.07574   0.73943 H   0  0  0  0  0  0
  1  2  2  0  0  0
  1  4  1  0  0  0
  1  5  1  0  0  0
  2  3  2  0  0  0
  3  6  1  0  0  0
  3  7  1  0  0  0
M  END
