CIP:ss;BB:
__Jmol-14_05291708123D 1   1.00000     0.00000     0
Jmol version 14.17.2  2017-05-27 15:31 EXTRACT: ({0:23})
 24 24  0  0  0  0              1 V2000
  -1.31115   0.43444  -0.22832 C   0  0  0  0  0  0
  -2.72086  -0.04903   0.10714 C   0  0  0  0  0  0
  -0.58256  -0.59115  -1.10641 C   0  0  0  0  0  0
   0.85384  -0.16296  -1.40560 C   0  0  0  0  0  0
   1.66430   0.15358  -0.14104 C   0  0  0  0  0  0
   2.03470  -1.11816   0.62696 C   0  0  0  0  0  0
   0.91435   1.15474   0.74839 C   0  0  0  0  0  0
  -0.52097   0.72709   1.05360 C   0  0  0  0  0  0
  -1.40277   1.37005  -0.79626 H   0  0  0  0  0  0
  -3.25372   0.69473   0.70905 H   0  0  0  0  0  0
  -3.30108  -0.21881  -0.80604 H   0  0  0  0  0  0
  -2.69633  -0.98711   0.67195 H   0  0  0  0  0  0
  -1.12203  -0.71727  -2.05311 H   0  0  0  0  0  0
  -0.58135  -1.57268  -0.61714 H   0  0  0  0  0  0
   1.35493  -0.94219  -1.99202 H   0  0  0  0  0  0
   0.82691   0.73288  -2.03977 H   0  0  0  0  0  0
   2.60686   0.62160  -0.45406 H   0  0  0  0  0  0
   2.65586  -0.87473   1.49563 H   0  0  0  0  0  0
   1.15587  -1.66069   0.98701 H   0  0  0  0  0  0
   2.60926  -1.79860  -0.01055 H   0  0  0  0  0  0
   1.45876   1.31044   1.68734 H   0  0  0  0  0  0
   0.88900   2.12730   0.23980 H   0  0  0  0  0  0
  -1.01777   1.52377   1.62070 H   0  0  0  0  0  0
  -0.51395  -0.15714   1.70251 H   0  0  0  0  0  0
  2  1  1  0  0  0
  3  1  1  0  0  0
  4  3  1  0  0  0
  5  4  1  0  0  0
  6  5  1  0  0  0
  7  5  1  0  0  0
  8  7  1  0  0  0
  8  1  1  0  0  0
  1  9  1  0  0  0
  2 10  1  0  0  0
  2 11  1  0  0  0
  2 12  1  0  0  0
  3 13  1  0  0  0
  3 14  1  0  0  0
  4 15  1  0  0  0
  4 16  1  0  0  0
  5 17  1  0  0  0
  6 18  1  0  0  0
  6 19  1  0  0  0
  6 20  1  0  0  0
  7 21  1  0  0  0
  7 22  1  0  0  0
  8 23  1  0  0  0
  8 24  1  0  0  0
M  END
