CIP:S;BB:
__Jmol-14_05291708123D 1   1.00000     0.00000     0
Jmol version 14.17.2  2017-05-27 15:31 EXTRACT: ({0:23})
 24 24  0  0  0  0              1 V2000
   0.97866  -0.74105  -0.40204 P   0  0  0  0  0  0
   1.50510  -0.40292  -1.71385 O   0  0  0  0  0  0
   1.04130  -2.50836  -0.36331 C   0  0  0  0  0  0
   2.17967  -0.09699   0.73774 C   0  0  0  0  0  0
   2.33157   1.41135   0.70625 C   0  0  0  0  0  0
  -0.61755  -0.04728  -0.31549 C   0  0  0  0  0  0
  -1.15189   0.71064  -1.36595 C   0  0  0  0  0  0
  -2.43122   1.26192  -1.27616 C   0  0  0  0  0  0
  -3.19631   1.06214  -0.12998 C   0  0  0  0  0  0
  -2.68214   0.31154   0.92459 C   0  0  0  0  0  0
  -1.40178  -0.23884   0.83160 C   0  0  0  0  0  0
   0.47915  -2.91404  -1.21736 H   0  0  0  0  0  0
   0.59518  -2.87065   0.57462 H   0  0  0  0  0  0
   2.08855  -2.83958  -0.42309 H   0  0  0  0  0  0
   3.15431  -0.58134   0.57807 H   0  0  0  0  0  0
   1.95483  -0.43588   1.75980 H   0  0  0  0  0  0
   1.36929   1.88212   0.95607 H   0  0  0  0  0  0
   2.64413   1.72752  -0.29990 H   0  0  0  0  0  0
   3.09148   1.71879   1.43974 H   0  0  0  0  0  0
  -0.55430   0.87366  -2.27497 H   0  0  0  0  0  0
  -2.83487   1.85405  -2.11069 H   0  0  0  0  0  0
  -4.20448   1.49614  -0.05759 H   0  0  0  0  0  0
  -3.28461   0.15214   1.83102 H   0  0  0  0  0  0
  -1.00317  -0.83033   1.66900 H   0  0  0  0  0  0
  2  1  2  0  0  0
  3  1  1  0  0  0
  4  1  1  0  0  0
  6  1  1  0  0  0
  5  4  1  0  0  0
  7  6  2  0  0  0
 11  6  1  0  0  0
  8  7  1  0  0  0
  9  8  2  0  0  0
 10  9  1  0  0  0
 11 10  2  0  0  0
 12  3  1  0  0  0
 13  3  1  0  0  0
 14  3  1  0  0  0
 15  4  1  0  0  0
 16  4  1  0  0  0
 17  5  1  0  0  0
 18  5  1  0  0  0
 19  5  1  0  0  0
 20  7  1  0  0  0
 21  8  1  0  0  0
 22  9  1  0  0  0
 23 10  1  0  0  0
 24 11  1  0  0  0
M  END
