CIP:ZZ;BB:
__Jmol-14_05291708123D 1   1.00000     0.00000     0
Jmol version 14.17.2  2017-05-27 15:31 EXTRACT: ({0:11})
 12 11  0  0  0  0              1 V2000
  11.12703  11.56770   0.65235 C   0  0  0  0  0  0
  11.93006  10.30130   0.85111 C   0  0  0  0  0  0
  13.27356  10.31600   0.83769 C   0  0  0  0  0  0
  14.04416  11.60060   0.62902 C   0  0  0  0  0  0
  10.05480  11.32100   0.49540 H   0  0  0  0  0  0
  11.22976  12.20280   1.55925 H   0  0  0  0  0  0
  11.49511  12.12630  -0.23464 H   0  0  0  0  0  0
  11.39834   9.33840   1.00769 H   0  0  0  0  0  0
  13.82974   9.36570   0.98757 H   0  0  0  0  0  0
  13.62434  12.17300  -0.22549 H   0  0  0  0  0  0
  13.97503  12.21400   1.55402 H   0  0  0  0  0  0
  15.11081  11.37520   0.41440 H   0  0  0  0  0  0
  1  2  1  0  0  0
  2  3  2  0  0  0
  3  4  1  0  0  0
  5  1  1  0  0  0
  6  1  1  0  0  0
  7  1  1  0  0  0
  8  2  1  0  0  0
  9  3  1  0  0  0
 10  4  1  0  0  0
 11  4  1  0  0  0
 12  4  1  0  0  0
M  END
