CIP:2E 3E 5E 7E;
__Jmol-14_06031715053D 1   1.00000     0.00000     0
Jmol version 14.17.2  2017-05-27 15:31 EXTRACT: ({0:19})
 20 20  0  0  0  0              1 V2000
  17.61789  -3.67691   2.03782 C   0  0  0  0  0  0
  18.78091  -2.72696   2.16027 C   0  0  0  0  0  0
  20.11032  -2.93959   2.22924 C   0  0  0  0  0  0
  21.27640  -1.95493   2.33200 C   0  0  0  0  0  0
  22.19555  -3.16825   2.37176 C   0  0  0  0  0  0
  21.02916  -4.15228   2.26761 C   0  0  0  0  0  0
  23.52401  -3.38615   2.44451 C   0  0  0  0  0  0
  24.69463  -2.44364   2.55168 C   0  0  0  0  0  0
  17.23196  -3.93350   3.03208 H   0  0  0  0  0  0
  17.80857  -4.60412   1.48801 H   0  0  0  0  0  0
  16.80742  -3.17581   1.50261 H   0  0  0  0  0  0
  18.47519  -1.68577   2.19176 H   0  0  0  0  0  0
  21.27777  -1.32465   3.22334 H   0  0  0  0  0  0
  21.40233  -1.29443   1.46496 H   0  0  0  0  0  0
  20.90590  -4.81609   3.12612 H   0  0  0  0  0  0
  21.02689  -4.77868   1.36761 H   0  0  0  0  0  0
  23.82344  -4.42936   2.41975 H   0  0  0  0  0  0
  24.52972  -1.53044   3.13244 H   0  0  0  0  0  0
  25.04741  -2.16315   1.55153 H   0  0  0  0  0  0
  25.52105  -2.96200   3.04453 H   0  0  0  0  0  0
  1  2  1  0  0  0
  2  3  2  0  0  0
  3  4  1  0  0  0
  4  5  1  0  0  0
  5  6  1  0  0  0
  6  3  1  0  0  0
  5  7  2  0  0  0
  7  8  1  0  0  0
  1  9  1  0  0  0
  1 10  1  0  0  0
  1 11  1  0  0  0
  2 12  1  0  0  0
  4 13  1  0  0  0
  4 14  1  0  0  0
  6 15  1  0  0  0
  6 16  1  0  0  0
  7 17  1  0  0  0
  8 18  1  0  0  0
  8 19  1  0  0  0
  8 20  1  0  0  0
M  END
