CIP:2R;
__Jmol-14_06031715053D 1   1.00000     0.00000     0
Jmol version 14.17.2  2017-05-27 15:31 EXTRACT: ({0:21})
 22 22  0  0  0  0              1 V2000
  -0.53371  -0.14432   0.69902 C   0  0  0  0  0  0
  -1.80611   0.39207  -0.04265 C   0  0  0  0  0  0
  -2.84203  -0.71875  -0.36367 C   0  0  0  0  0  0
  -3.85146  -1.11871   0.72592 C   0  0  0  0  0  0
  -4.32389  -0.32662  -0.50126 C   0  0  0  0  0  0
   0.24101  -1.22814  -0.10371 C   0  0  0  0  0  0
   0.42269   1.01041   1.11488 C   0  0  0  0  0  0
  -1.47525   1.02508  -1.27760 O   0  0  0  0  0  0
  -0.91296  -0.63262   1.60882 H   0  0  0  0  0  0
  -2.24805   1.11297   0.66090 H   0  0  0  0  0  0
  -2.11822  -1.25892  -0.99162 H   0  0  0  0  0  0
  -3.83955  -0.71051   1.74731 H   0  0  0  0  0  0
  -4.14687  -2.15823   0.93118 H   0  0  0  0  0  0
  -4.68695   0.71069  -0.45465 H   0  0  0  0  0  0
  -4.99427  -0.73703  -1.27078 H   0  0  0  0  0  0
   1.04851  -1.63916   0.51999 H   0  0  0  0  0  0
   0.67134  -0.77597  -1.00945 H   0  0  0  0  0  0
  -0.44884  -2.03588  -0.38947 H   0  0  0  0  0  0
   0.85377   1.47186   0.21419 H   0  0  0  0  0  0
   1.23094   0.60868   1.74363 H   0  0  0  0  0  0
  -0.14042   1.76712   1.68082 H   0  0  0  0  0  0
  -0.80697   1.75031  -1.11194 H   0  0  0  0  0  0
  1  2  1  0  0  0
  2  3  1  0  0  0
  3  4  1  0  0  0
  4  5  1  0  0  0
  5  3  1  0  0  0
  1  6  1  0  0  0
  1  7  1  0  0  0
  2  8  1  0  0  0
  9  1  1  0  0  0
 10  2  1  0  0  0
 11  3  1  0  0  0
 12  4  1  0  0  0
 13  4  1  0  0  0
 14  5  1  0  0  0
 15  5  1  0  0  0
 16  6  1  0  0  0
 17  6  1  0  0  0
 18  6  1  0  0  0
 19  7  1  0  0  0
 20  7  1  0  0  0
 21  7  1  0  0  0
 22  8  1  0  0  0
M  END
