CIP:1p 3p 4S 5R;
__Jmol-14_06031715053D 1   1.00000     0.00000     0
Jmol version 14.17.2  2017-05-27 15:31 EXTRACT: ({0:12})
 13 12  0  0  0  0              1 V2000
   9.08863   2.21705  -0.91410 C   0  0  0  0  0  0
  10.07154   3.15019  -0.80325 C   0  0  0  0  0  0
  11.05748   4.08067  -0.69169 C   0  0  0  0  0  0
  10.73377   5.54998  -0.79971 C   0  0  0  0  0  0
  12.47782   3.63793  -0.46048 C   0  0  0  0  0  0
   8.17009   1.63190   0.61911 Br  0  0  0  0  0  0
  12.52010   1.74418  -0.05839 Br  0  0  0  0  0  0
   8.86933   5.83181  -1.24629 Br  0  0  0  0  0  0
  13.21211   3.87238  -1.58271 F   0  0  0  0  0  0
  11.50183   6.09787  -1.78023 F   0  0  0  0  0  0
   8.82857   1.79894  -1.91028 H   0  0  0  0  0  0
  10.96109   6.03499   0.17720 H   0  0  0  0  0  0
  12.90474   4.20939   0.39578 H   0  0  0  0  0  0
  1  2  2  0  0  0
  2  3  2  0  0  0
  3  4  1  0  0  0
  3  5  1  0  0  0
  1  6  1  0  0  0
  5  7  1  0  0  0
  4  8  1  0  0  0
  5  9  1  0  0  0
  4 10  1  0  0  0
  1 11  1  0  0  0
  4 12  1  0  0  0
  5 13  1  0  0  0
M  END
