CIP:SSsRRSRRS;BB:
__Jmol-14_05291708123D 1   1.00000     0.00000     0
Jmol version 14.17.2  2017-05-27 15:31 EXTRACT: ({0:45})
 46 45  0  0  0  0              1 V2000
  -4.33340   3.18180   0.88247 C   0  0  0  0  0  0
  -4.38610   3.28031  -0.66453 C   0  0  0  0  0  0
  -3.16149   2.64569  -1.43079 C   0  0  0  0  0  0
  -2.71342   1.20657  -1.19107 N   0  0  0  0  0  0
  -1.39365   0.79516  -1.83366 C   0  0  0  0  0  0
  -0.42061  -0.06733  -1.04170 N   0  0  0  0  0  0
   0.45772   0.48072   0.07762 C   0  0  0  0  0  0
   0.51736   1.97108   0.55453 C   0  0  0  0  0  0
   1.10238   3.00693  -0.44190 C   0  0  0  0  0  0
  -1.70627   0.21356  -3.09423 O   0  0  0  0  0  0
   0.16688  -1.31958  -1.68571 C   0  0  0  0  0  0
   0.97001  -1.14355  -3.02280 C   0  0  0  0  0  0
   1.96028   0.04754  -3.02687 C   0  0  0  0  0  0
  -3.73716   0.13962  -0.86343 C   0  0  0  0  0  0
  -4.30129  -0.80339  -1.98689 C   0  0  0  0  0  0
  -4.93468  -0.11251  -3.22044 C   0  0  0  0  0  0
   1.88419  -2.60705  -3.41612 Cl  0  0  0  0  0  0
  -5.53917  -1.89263  -1.33914 Cl  0  0  0  0  0  0
  -5.97850   2.77884  -1.24781 Cl  0  0  0  0  0  0
  -3.30496   3.04083  -3.14887 Cl  0  0  0  0  0  0
   0.17548  -0.54223   1.49473 Cl  0  0  0  0  0  0
  -0.98215   2.54131   1.27362 Cl  0  0  0  0  0  0
  -3.10102  -0.79729   0.49007 Cl  0  0  0  0  0  0
  -1.06187  -2.57499  -1.85071 Cl  0  0  0  0  0  0
  -4.52104   2.14256   1.19035 H   0  0  0  0  0  0
  -5.10162   3.83760   1.31808 H   0  0  0  0  0  0
  -3.34017   3.49533   1.23628 H   0  0  0  0  0  0
  -4.25809   4.34199  -0.92232 H   0  0  0  0  0  0
  -2.30693   3.12679  -0.93253 H   0  0  0  0  0  0
  -0.80681   1.72264  -1.90713 H   0  0  0  0  0  0
   1.42877   0.46056  -0.43877 H   0  0  0  0  0  0
   1.27642   1.91181   1.34845 H   0  0  0  0  0  0
   1.30716   3.94944   0.08702 H   0  0  0  0  0  0
   0.37749   3.18942  -1.24890 H   0  0  0  0  0  0
   2.03723   2.61630  -0.87023 H   0  0  0  0  0  0
  -2.34560   0.80542  -3.58510 H   0  0  0  0  0  0
   0.94581  -1.62218  -0.97038 H   0  0  0  0  0  0
   0.19548  -0.93900  -3.77664 H   0  0  0  0  0  0
   2.41895   0.13971  -4.02242 H   0  0  0  0  0  0
   2.74536  -0.12571  -2.27612 H   0  0  0  0  0  0
   1.41985   0.97459  -2.78495 H   0  0  0  0  0  0
  -4.64905   0.71369  -0.64230 H   0  0  0  0  0  0
  -3.39585  -1.32487  -2.33074 H   0  0  0  0  0  0
  -5.82917   0.44661  -2.90856 H   0  0  0  0  0  0
  -5.21831  -0.87399  -3.96185 H   0  0  0  0  0  0
  -4.20633   0.58046  -3.66686 H   0  0  0  0  0  0
  1  2  1  0  0  0
  2  3  1  0  0  0
  3  4  1  0  0  0
  4  5  1  0  0  0
  5  6  1  0  0  0
  6  7  1  0  0  0
  7  8  1  0  0  0
  8  9  1  0  0  0
  5 10  1  0  0  0
 11 12  1  0  0  0
 12 13  1  0  0  0
  6 11  1  0  0  0
 14 15  1  0  0  0
 15 16  1  0  0  0
  4 14  1  0  0  0
 12 17  1  0  0  0
 15 18  1  0  0  0
  2 19  1  0  0  0
  3 20  1  0  0  0
  7 21  1  0  0  0
  8 22  1  0  0  0
 14 23  1  0  0  0
 11 24  1  0  0  0
 25  1  1  0  0  0
 26  1  1  0  0  0
 27  1  1  0  0  0
 28  2  1  0  0  0
 29  3  1  0  0  0
 30  5  1  0  0  0
 31  7  1  0  0  0
 32  8  1  0  0  0
 33  9  1  0  0  0
 34  9  1  0  0  0
 35  9  1  0  0  0
 36 10  1  0  0  0
 37 11  1  0  0  0
 38 12  1  0  0  0
 39 13  1  0  0  0
 40 13  1  0  0  0
 41 13  1  0  0  0
 42 14  1  0  0  0
 43 15  1  0  0  0
 44 16  1  0  0  0
 45 16  1  0  0  0
 46 16  1  0  0  0
M  END
