CIP:MM;BB:
__Jmol-14_05291708123D 1   1.00000     0.00000     0
Jmol version 14.17.2  2017-05-27 15:31 EXTRACT: ({0:6})
  7  6  0  0  0  0              1 V2000
   3.70025  -0.26748   1.54745 C   0  0  0  0  0  0
   2.26320  -0.33566   1.49650 C   0  0  0  0  0  0
   0.82548  -0.40370   1.44530 C   0  0  0  0  0  0
   4.35110   0.60775   0.78628 F   0  0  0  0  0  0
  -0.13474   0.72826   2.37197 Cl  0  0  0  0  0  0
   4.25971  -0.93883   2.21550 H   0  0  0  0  0  0
   0.33181  -1.16600   0.82468 H   0  0  0  0  0  0
  1  2  2  0  0  0
  1  4  1  0  0  0
  2  3  2  0  0  0
  3  5  1  0  0  0
  6  1  1  0  0  0
  7  3  1  0  0  0
M  END
