CIP:S;BB:
__Jmol-14_05291708123D 1   1.00000     0.00000     0
Jmol version 14.17.2  2017-05-27 15:31 EXTRACT: ({0:67})
 68 72  0  0  0  0              1 V2000
  -5.63136  -6.81082   6.02393 C   0  0  0  0  0  0
  -7.13944  -6.63451   5.84835 C   0  0  0  0  0  0
  -6.38485  -7.64653   4.98452 C   0  0  0  0  0  0
  -6.63412  -9.03930   5.55938 C   0  0  0  0  0  0
  -5.95940 -10.09782   4.67835 C   0  0  0  0  0  0
  -5.21651 -11.12217   5.55786 C   0  0  0  0  0  0
  -6.11983 -11.86859   6.58023 C   0  0  0  0  0  0
  -4.46590 -12.11507   4.65543 C   0  0  0  0  0  0
  -3.51959 -12.97745   5.49828 C   0  0  0  0  0  0
  -2.48705 -13.63799   4.59160 C   0  0  0  0  0  0
  -1.94117 -14.87662   5.30439 C   0  0  0  0  0  0
  -1.12590 -13.58542   5.29262 C   0  0  0  0  0  0
  -4.19143 -10.34427   6.40436 C   0  0  0  0  0  0
  -3.18095  -9.61164   5.52304 C   0  0  0  0  0  0
  -2.35540  -8.67299   6.39397 C   0  0  0  0  0  0
  -1.17107  -8.16817   5.57086 C   0  0  0  0  0  0
  -2.39960  -7.28054   5.76231 C   0  0  0  0  0  0
  -7.32166 -12.57116   5.88575 C   0  0  0  0  0  0
  -8.17691 -11.64327   4.99174 C   0  0  0  0  0  0
  -9.38372 -12.40700   4.40348 C   0  0  0  0  0  0
  -9.42055 -13.85116   4.94176 C   0  0  0  0  0  0
  -8.11585 -14.56457   4.52709 C   0  0  0  0  0  0
  -6.87773 -13.79292   5.05018 C   0  0  0  0  0  0
  -8.22711 -13.07645   7.02781 C   0  0  0  0  0  0
  -9.47606 -13.79793   6.47958 C   0  0  0  0  0  0
  -5.33710 -12.85444   7.23648 O   0  0  0  0  0  0
  -5.16785  -7.23420   6.92721 H   0  0  0  0  0  0
  -4.89274  -6.03767   5.76573 H   0  0  0  0  0  0
  -7.60397  -5.72016   5.45062 H   0  0  0  0  0  0
  -7.87908  -6.91669   6.61209 H   0  0  0  0  0  0
  -6.27538  -7.84279   3.90772 H   0  0  0  0  0  0
  -7.70882  -9.23994   5.68082 H   0  0  0  0  0  0
  -6.29961  -9.11077   6.60484 H   0  0  0  0  0  0
  -5.28734  -9.63843   3.93855 H   0  0  0  0  0  0
  -6.68321 -10.58852   4.01104 H   0  0  0  0  0  0
  -6.51862 -11.13022   7.29141 H   0  0  0  0  0  0
  -3.92884 -11.59886   3.84604 H   0  0  0  0  0  0
  -5.16147 -12.73344   4.06909 H   0  0  0  0  0  0
  -4.06985 -13.71964   6.09525 H   0  0  0  0  0  0
  -3.04246 -12.39322   6.29892 H   0  0  0  0  0  0
  -2.86425 -13.41085   3.58357 H   0  0  0  0  0  0
  -1.63544 -15.79512   4.78202 H   0  0  0  0  0  0
  -2.39095 -15.30506   6.21221 H   0  0  0  0  0  0
  -0.16982 -13.47271   4.76045 H   0  0  0  0  0  0
  -0.92533 -12.98264   6.19064 H   0  0  0  0  0  0
  -3.68517 -11.00672   7.12189 H   0  0  0  0  0  0
  -4.69249  -9.64990   7.09486 H   0  0  0  0  0  0
  -3.67086  -9.07749   4.69560 H   0  0  0  0  0  0
  -2.54630 -10.31126   4.95935 H   0  0  0  0  0  0
  -2.49086  -9.08712   7.40400 H   0  0  0  0  0  0
  -0.87428  -8.59778   4.60269 H   0  0  0  0  0  0
  -0.18323  -7.94248   5.99891 H   0  0  0  0  0  0
  -3.08378  -7.00194   4.94727 H   0  0  0  0  0  0
  -2.39273  -6.34663   6.34349 H   0  0  0  0  0  0
  -7.57026 -11.18233   4.19832 H   0  0  0  0  0  0
  -8.50033 -10.74645   5.54047 H   0  0  0  0  0  0
  -9.37375 -12.38824   3.30368 H   0  0  0  0  0  0
 -10.32849 -11.87986   4.60230 H   0  0  0  0  0  0
 -10.29488 -14.38562   4.54187 H   0  0  0  0  0  0
  -8.06706 -14.70783   3.43755 H   0  0  0  0  0  0
  -8.10726 -15.61124   4.86536 H   0  0  0  0  0  0
  -6.21076 -13.49675   4.22712 H   0  0  0  0  0  0
  -6.20649 -14.44977   5.62288 H   0  0  0  0  0  0
  -8.50799 -12.25565   7.70412 H   0  0  0  0  0  0
  -7.66821 -13.72223   7.72105 H   0  0  0  0  0  0
 -10.40387 -13.32527   6.83421 H   0  0  0  0  0  0
  -9.58610 -14.80214   6.91484 H   0  0  0  0  0  0
  -4.55967 -12.41663   7.68807 H   0  0  0  0  0  0
  1  2  1  0  0  0
  2  3  1  0  0  0
  3  1  1  0  0  0
  3  4  1  0  0  0
  4  5  1  0  0  0
  5  6  1  0  0  0
  7  6  1  0  0  0
  6  8  1  0  0  0
  8  9  1  0  0  0
  9 10  1  0  0  0
 10 11  1  0  0  0
 11 12  1  0  0  0
 12 10  1  0  0  0
  6 13  1  0  0  0
 13 14  1  0  0  0
 14 15  1  0  0  0
 15 16  1  0  0  0
 16 17  1  0  0  0
 17 15  1  0  0  0
  7 18  1  0  0  0
 18 19  1  0  0  0
 19 20  1  0  0  0
 20 21  1  0  0  0
 21 22  1  0  0  0
 22 23  1  0  0  0
 23 18  1  0  0  0
 18 24  1  0  0  0
 24 25  1  0  0  0
 25 21  1  0  0  0
  7 26  1  0  0  0
 27  1  1  0  0  0
 28  1  1  0  0  0
 29  2  1  0  0  0
 30  2  1  0  0  0
 31  3  1  0  0  0
 32  4  1  0  0  0
 33  4  1  0  0  0
 34  5  1  0  0  0
 35  5  1  0  0  0
 36  7  1  0  0  0
 37  8  1  0  0  0
 38  8  1  0  0  0
 39  9  1  0  0  0
 40  9  1  0  0  0
 41 10  1  0  0  0
 42 11  1  0  0  0
 43 11  1  0  0  0
 44 12  1  0  0  0
 45 12  1  0  0  0
 46 13  1  0  0  0
 47 13  1  0  0  0
 48 14  1  0  0  0
 49 14  1  0  0  0
 50 15  1  0  0  0
 51 16  1  0  0  0
 52 16  1  0  0  0
 53 17  1  0  0  0
 54 17  1  0  0  0
 55 19  1  0  0  0
 56 19  1  0  0  0
 57 20  1  0  0  0
 58 20  1  0  0  0
 59 21  1  0  0  0
 60 22  1  0  0  0
 61 22  1  0  0  0
 62 23  1  0  0  0
 63 23  1  0  0  0
 64 24  1  0  0  0
 65 24  1  0  0  0
 66 25  1  0  0  0
 67 25  1  0  0  0
 68 26  1  0  0  0
M  END
