CIP:ss;BB:
__Jmol-14_05291708123D 1   1.00000     0.00000     0
Jmol version 14.17.2  2017-05-27 15:31 EXTRACT: ({0:13})
 14 14  0  0  0  0              1 V2000
  -0.78287   0.50182   0.74663 C   0  0  0  0  0  0
  -1.71077  -0.40114   1.37728 O   0  0  0  0  0  0
  -0.72896   0.45947  -0.78780 C   0  0  0  0  0  0
   0.73291  -0.00977  -0.72734 C   0  0  0  0  0  0
   0.98017  -1.32702  -1.25290 O   0  0  0  0  0  0
   0.69846   0.09893   0.80474 C   0  0  0  0  0  0
  -0.95066   1.51613   1.12789 H   0  0  0  0  0  0
  -1.55191  -1.26674   0.95943 H   0  0  0  0  0  0
  -0.86802   1.43354  -1.26890 H   0  0  0  0  0  0
  -1.41874  -0.25439  -1.25025 H   0  0  0  0  0  0
   1.42071   0.71007  -1.18745 H   0  0  0  0  0  0
   1.92513  -1.49225  -1.08902 H   0  0  0  0  0  0
   1.35818   0.87095   1.21485 H   0  0  0  0  0  0
   0.89637  -0.83972   1.33292 H   0  0  0  0  0  0
  2  1  1  0  0  0
  3  1  1  0  0  0
  4  3  1  0  0  0
  5  4  1  0  0  0
  6  4  1  0  0  0
  6  1  1  0  0  0
  1  7  1  0  0  0
  2  8  1  0  0  0
  3  9  1  0  0  0
  3 10  1  0  0  0
  4 11  1  0  0  0
  5 12  1  0  0  0
  6 13  1  0  0  0
  6 14  1  0  0  0
M  END
