CIP:2R 3s 4R 5r 6R 9S 13S;
__Jmol-14_06031715063D 1   1.00000     0.00000     0
Jmol version 14.17.2  2017-05-27 15:31 EXTRACT: ({0:35})
 36 35  0  0  0  0              1 V2000
  11.29648   3.86015  25.64777 C   0  0  0  0  0  0
  12.35311   2.96987  26.35904 C   0  0  0  0  0  0
  11.82525   1.85860  27.36265 C   0  0  0  0  0  0
  10.71264   0.87628  26.78492 C   0  0  0  0  0  0
   9.22367   1.35022  26.47866 C   0  0  0  0  0  0
   8.32634   0.17684  25.89714 C   0  0  0  0  0  0
   6.91371   0.58347  25.39119 C   0  0  0  0  0  0
  13.43276   4.12731  27.16376 Cl  0  0  0  0  0  0
  13.04721   1.06757  28.00464 C   0  0  0  0  0  0
  13.72278  -0.00313  27.10420 C   0  0  0  0  0  0
  12.65778   0.35845  29.57929 Cl  0  0  0  0  0  0
  10.59568  -0.26698  27.63298 O   0  0  0  0  0  0
   8.55925   2.15376  27.66820 C   0  0  0  0  0  0
   7.33411   3.31257  27.13374 Cl  0  0  0  0  0  0
   7.99732   1.30336  28.83981 C   0  0  0  0  0  0
   9.08946  -0.63946  24.52124 Cl  0  0  0  0  0  0
  11.39511   2.40378  28.19854 H   0  0  0  0  0  0
   9.28596   2.04521  25.64938 H   0  0  0  0  0  0
  11.79974   4.52264  24.92814 H   0  0  0  0  0  0
  10.76529   4.46728  26.39560 H   0  0  0  0  0  0
  10.57639   3.22083  25.11604 H   0  0  0  0  0  0
  12.84051   2.33729  25.60254 H   0  0  0  0  0  0
  11.13175   0.72629  25.77902 H   0  0  0  0  0  0
   8.22179  -0.47141  26.77967 H   0  0  0  0  0  0
   6.35710  -0.31764  25.09424 H   0  0  0  0  0  0
   7.01344   1.25470  24.52545 H   0  0  0  0  0  0
   6.37094   1.10112  26.19583 H   0  0  0  0  0  0
  13.79292   1.86629  28.13087 H   0  0  0  0  0  0
  13.03573  -0.85061  26.96372 H   0  0  0  0  0  0
  14.64705  -0.35625  27.58485 H   0  0  0  0  0  0
  13.96397   0.43928  26.12639 H   0  0  0  0  0  0
  11.50775  -0.60917  27.85891 H   0  0  0  0  0  0
   9.42300   2.69914  28.07625 H   0  0  0  0  0  0
   7.10289   0.75939  28.50205 H   0  0  0  0  0  0
   7.72989   1.96437  29.67740 H   0  0  0  0  0  0
   8.76109   0.58389  29.16998 H   0  0  0  0  0  0
  1  2  1  0  0  0
  2  3  1  0  0  0
  3  4  1  0  0  0
  4  5  1  0  0  0
  5  6  1  0  0  0
  6  7  1  0  0  0
  2  8  1  0  0  0
  3  9  1  0  0  0
  9 10  1  0  0  0
  9 11  1  0  0  0
  4 12  1  0  0  0
  5 13  1  0  0  0
 13 14  1  0  0  0
 13 15  1  0  0  0
  6 16  1  0  0  0
  3 17  1  0  0  0
  5 18  1  0  0  0
 19  1  1  0  0  0
 20  1  1  0  0  0
 21  1  1  0  0  0
 22  2  1  0  0  0
 23  4  1  0  0  0
 24  6  1  0  0  0
 25  7  1  0  0  0
 26  7  1  0  0  0
 27  7  1  0  0  0
 28  9  1  0  0  0
 29 10  1  0  0  0
 30 10  1  0  0  0
 31 10  1  0  0  0
 32 12  1  0  0  0
 33 13  1  0  0  0
 34 15  1  0  0  0
 35 15  1  0  0  0
 36 15  1  0  0  0
M  END
