CIP:2S 3R 4R 5S 6R;
__Jmol-14_06031715053D 1   1.00000     0.00000     0
Jmol version 14.17.2  2017-05-27 15:31 EXTRACT: ({0:35})
 36 35  0  0  0  0              1 V2000
   2.75635   2.27498   1.27667 C   0  0  0  0  0  0
   3.41407   1.38661   0.18146 C   0  0  0  0  0  0
   2.54950   0.18126  -0.37485 C   0  0  0  0  0  0
   1.30381   0.59738  -1.26438 C   0  0  0  0  0  0
   0.01809   1.20863  -0.57549 C   0  0  0  0  0  0
  -1.11835   1.61957  -1.59151 C   0  0  0  0  0  0
  -0.70338   2.52530  -2.78934 C   0  0  0  0  0  0
   3.45638  -0.87879  -1.11250 C   0  0  0  0  0  0
   4.13650  -0.39532  -2.41503 C   0  0  0  0  0  0
  -0.55463   0.38007   0.63254 C   0  0  0  0  0  0
  -1.16008  -1.01098   0.32106 C   0  0  0  0  0  0
   0.86829  -0.50424  -2.06910 O   0  0  0  0  0  0
  -2.14468   2.26739  -0.93388 F   0  0  0  0  0  0
   4.59089   0.91005   0.72440 F   0  0  0  0  0  0
   5.31353  -1.95546  -3.24235 I   0  0  0  0  0  0
  -1.83183  -1.82251   1.93816 Br  0  0  0  0  0  0
  -0.02871   4.07579  -2.28806 Cl  0  0  0  0  0  0
   3.68386   3.01237   1.97803 F   0  0  0  0  0  0
   1.69169   1.34527  -1.96101 H   0  0  0  0  0  0
   2.14199   1.66764   1.95764 H   0  0  0  0  0  0
   1.98465   2.92704   0.84160 H   0  0  0  0  0  0
   3.55220   2.02270  -0.70529 H   0  0  0  0  0  0
   2.10708  -0.28270   0.51903 H   0  0  0  0  0  0
   0.40401   2.13859  -0.13249 H   0  0  0  0  0  0
  -1.41550   0.65167  -2.02149 H   0  0  0  0  0  0
  -1.55125   2.67483  -3.47400 H   0  0  0  0  0  0
  -0.00422   1.99466  -3.45237 H   0  0  0  0  0  0
   4.21434  -1.27015  -0.41800 H   0  0  0  0  0  0
   2.87751  -1.79304  -1.31012 H   0  0  0  0  0  0
   4.73223   0.51384  -2.24609 H   0  0  0  0  0  0
   3.39961  -0.01789  -3.13928 H   0  0  0  0  0  0
   0.22140   0.27629   1.40522 H   0  0  0  0  0  0
  -1.29425   0.98763   1.17457 H   0  0  0  0  0  0
  -0.43272  -1.66290  -0.18484 H   0  0  0  0  0  0
  -1.94023  -0.94698  -0.45177 H   0  0  0  0  0  0
   0.50123  -1.22344  -1.47916 H   0  0  0  0  0  0
  1  2  1  0  0  0
  2  3  1  0  0  0
  3  4  1  0  0  0
  4  5  1  0  0  0
  5  6  1  0  0  0
  6  7  1  0  0  0
  8  9  1  0  0  0
  3  8  1  0  0  0
 10 11  1  0  0  0
  5 10  1  0  0  0
  4 12  1  0  0  0
  6 13  1  0  0  0
  2 14  1  0  0  0
  9 15  1  0  0  0
 11 16  1  0  0  0
  7 17  1  0  0  0
  1 18  1  0  0  0
  4 19  1  0  0  0
 20  1  1  0  0  0
 21  1  1  0  0  0
 22  2  1  0  0  0
 23  3  1  0  0  0
 24  5  1  0  0  0
 25  6  1  0  0  0
 26  7  1  0  0  0
 27  7  1  0  0  0
 28  8  1  0  0  0
 29  8  1  0  0  0
 30  9  1  0  0  0
 31  9  1  0  0  0
 32 10  1  0  0  0
 33 10  1  0  0  0
 34 11  1  0  0  0
 35 11  1  0  0  0
 36 12  1  0  0  0
M  END
