CIP:S;BB:
__Jmol-14_05291708123D 1   1.00000     0.00000     0
Jmol version 14.17.2  2017-05-27 15:31 EXTRACT: ({0:22})
 23 24  0  0  0  0              1 V2000
   1.26423   0.00548   0.03339 C   0  0  0  0  0  0
   2.04485   1.32169   0.21232 C   0  0  0  0  0  0
   0.73152   2.11654   0.10308 C   0  0  0  0  0  0
  -0.06805   0.79572  -0.00437 C   0  0  0  0  0  0
  -1.08984   0.51755   1.13816 C   0  0  0  0  0  0
  -2.27121   1.52024   1.06691 C   0  0  0  0  0  0
  -3.44979   1.20512   0.13273 C   0  0  0  0  0  0
  -3.62944   1.10248   1.65397 C   0  0  0  0  0  0
  -0.51280   0.64366   2.43659 O   0  0  0  0  0  0
   1.37270  -0.74876   0.82671 H   0  0  0  0  0  0
   1.50798  -0.60086  -0.85145 H   0  0  0  0  0  0
   2.82420   1.54332  -0.53166 H   0  0  0  0  0  0
   2.62034   1.43660   1.14270 H   0  0  0  0  0  0
   0.64490   2.81946  -0.73858 H   0  0  0  0  0  0
   0.48193   2.78130   0.94320 H   0  0  0  0  0  0
  -0.78253   0.63227  -0.82462 H   0  0  0  0  0  0
  -1.42877  -0.51835   0.98972 H   0  0  0  0  0  0
  -1.59396   2.37609   1.20422 H   0  0  0  0  0  0
  -3.47637   0.33845  -0.54415 H   0  0  0  0  0  0
  -3.95193   1.95937  -0.49094 H   0  0  0  0  0  0
  -3.79841   0.15436   2.18549 H   0  0  0  0  0  0
  -4.27397   1.77528   2.23870 H   0  0  0  0  0  0
   0.25623   0.01025   2.52259 H   0  0  0  0  0  0
  1  2  1  0  0  0
  2  3  1  0  0  0
  3  4  1  0  0  0
  4  5  1  0  0  0
  5  6  1  0  0  0
  6  7  1  0  0  0
  7  8  1  0  0  0
  1  4  1  0  0  0
  6  8  1  0  0  0
  5  9  1  0  0  0
 10  1  1  0  0  0
 11  1  1  0  0  0
 12  2  1  0  0  0
 13  2  1  0  0  0
 14  3  1  0  0  0
 15  3  1  0  0  0
 16  4  1  0  0  0
 17  5  1  0  0  0
 18  6  1  0  0  0
 19  7  1  0  0  0
 20  7  1  0  0  0
 21  8  1  0  0  0
 22  8  1  0  0  0
 23  9  1  0  0  0
M  END
