CIP:2s 5s;
__Jmol-14_06031715053D 1   1.00000     0.00000     0
Jmol version 14.17.2  2017-05-27 15:31 EXTRACT: ({0:22})
 23 23  0  0  0  0              1 V2000
   8.31545   3.91940  -4.28855 C   0  0  0  0  0  0
   9.09796   4.99066  -5.07707 C   0  0  0  0  0  0
   7.34690   4.59368  -3.30712 C   0  0  0  0  0  0
   8.26954   6.27398  -5.29392 C   0  0  0  0  0  0
   6.24976   5.37219  -4.06993 C   0  0  0  0  0  0
   6.78249   5.91897  -5.41371 C   0  0  0  0  0  0
   5.06513   4.44347  -4.35232 C   0  0  0  0  0  0
   5.63572   6.84202  -2.96559 Br  0  0  0  0  0  0
  10.33706   5.33889  -4.36648 N   0  0  0  0  0  0
   7.73792   3.28732  -4.99653 H   0  0  0  0  0  0
   9.02821   3.28399  -3.72063 H   0  0  0  0  0  0
   9.38315   4.56051  -6.06095 H   0  0  0  0  0  0
   6.87157   3.81372  -2.67461 H   0  0  0  0  0  0
   7.91616   5.29739  -2.66298 H   0  0  0  0  0  0
   8.41428   6.95905  -4.43127 H   0  0  0  0  0  0
   8.60236   6.77709  -6.22695 H   0  0  0  0  0  0
   6.21279   6.83106  -5.69273 H   0  0  0  0  0  0
   6.65593   5.14684  -6.20242 H   0  0  0  0  0  0
   4.40021   4.41107  -3.46279 H   0  0  0  0  0  0
   4.49562   4.82560  -5.22648 H   0  0  0  0  0  0
   5.44065   3.42092  -4.57132 H   0  0  0  0  0  0
  10.11728   6.01559  -3.58867 H   0  0  0  0  0  0
  10.76673   4.46567  -3.96141 H   0  0  0  0  0  0
  2  1  1  0  0  0
  3  1  1  0  0  0
  4  2  1  0  0  0
  5  3  1  0  0  0
  6  4  1  0  0  0
  6  5  1  0  0  0
  5  7  1  0  0  0
  5  8  1  0  0  0
  2  9  1  0  0  0
 10  1  1  0  0  0
 11  1  1  0  0  0
 12  2  1  0  0  0
 13  3  1  0  0  0
 14  3  1  0  0  0
 15  4  1  0  0  0
 16  4  1  0  0  0
 17  6  1  0  0  0
 18  6  1  0  0  0
 19  7  1  0  0  0
 20  7  1  0  0  0
 21  7  1  0  0  0
 22  9  1  0  0  0
 23  9  1  0  0  0
M  END
