CIP:;BB:
__Jmol-14_05291708123D 1   1.00000     0.00000     0
Jmol version 14.17.2  2017-05-27 15:31 EXTRACT: ({0:15})
 16 20  0  0  0  0              1 V2000
   0.64451  -0.86463   0.65579 C   0  0  0  0  0  0
  -0.88642  -0.75125   0.66601 C   0  0  0  0  0  0
  -0.77316   0.77925   0.65678 C   0  0  0  0  0  0
   0.75714   0.66605   0.64694 C   0  0  0  0  0  0
   0.74684   0.65688  -0.88736 C   0  0  0  0  0  0
  -0.78337   0.77073  -0.87764 C   0  0  0  0  0  0
  -0.89695  -0.75922  -0.86842 C   0  0  0  0  0  0
   0.63261  -0.87305  -0.87874 C   0  0  0  0  0  0
   1.22571  -1.52986   1.27976 H   0  0  0  0  0  0
  -1.54953  -1.32598   1.29904 H   0  0  0  0  0  0
  -1.34768   1.44923   1.28259 H   0  0  0  0  0  0
   1.42960   1.24615   1.26527 H   0  0  0  0  0  0
   1.41250   1.23033  -1.51828 H   0  0  0  0  0  0
  -1.36146   1.43919  -1.50201 H   0  0  0  0  0  0
  -1.57336  -1.33903  -1.48252 H   0  0  0  0  0  0
   1.20502  -1.54517  -1.50467 H   0  0  0  0  0  0
  2  1  1  0  0  0
  3  2  1  0  0  0
  4  3  1  0  0  0
  4  1  1  0  0  0
  5  4  1  0  0  0
  6  5  1  0  0  0
  6  3  1  0  0  0
  7  6  1  0  0  0
  7  2  1  0  0  0
  8  7  1  0  0  0
  8  1  1  0  0  0
  8  5  1  0  0  0
  1  9  1  0  0  0
  2 10  1  0  0  0
  3 11  1  0  0  0
  4 12  1  0  0  0
  5 13  1  0  0  0
  6 14  1  0  0  0
  7 15  1  0  0  0
  8 16  1  0  0  0
M  END
