CIP:1P 3P;
__Jmol-14_06031715053D 1   1.00000     0.00000     0
Jmol version 14.17.2  2017-05-27 15:31 EXTRACT: ({0:6})
  7  6  0  0  0  0              1 V2000
  -3.76586   1.03279  -0.81156 C   0  0  0  0  0  0
  -2.33017   1.07467  -0.70853 C   0  0  0  0  0  0
  -0.89473   1.11673  -0.60603 C   0  0  0  0  0  0
  -4.46994   0.27058   0.02041 F   0  0  0  0  0  0
   0.07943   0.03364  -1.57554 Cl  0  0  0  0  0  0
  -4.28010   1.63103  -1.57815 H   0  0  0  0  0  0
  -0.41156   1.82796   0.08006 H   0  0  0  0  0  0
  1  2  2  0  0  0
  1  4  1  0  0  0
  2  3  2  0  0  0
  3  5  1  0  0  0
  6  1  1  0  0  0
  7  3  1  0  0  0
M  END
