CIP:2S 3R 8R 12S 15S 17S 18R 21R 23S;
__Jmol-14_06031715053D 1   1.00000     0.00000     0
Jmol version 14.17.2  2017-05-27 15:31 EXTRACT: ({0:60})
 61 60  0  0  0  0              1 V2000
   2.74484   2.35199  -1.78243 C   0  0  0  0  0  0
   2.15403   2.48756  -1.21612 C   0  0  0  0  0  0
   1.57158   1.89333  -1.21117 C   0  0  0  0  0  0
   2.48984   2.53949  -0.53099 O   0  0  0  0  0  0
   1.11483   1.99005  -0.59541 O   0  0  0  0  0  0
   1.17745   1.92943  -1.86448 O   0  0  0  0  0  0
   0.56715   1.49742  -0.53767 N   0  0  0  0  0  0
  -0.12726   1.89656  -0.46345 C   0  0  0  0  0  0
   0.71818   1.01029   0.08637 C   0  0  0  0  0  0
  -0.76664   1.40780  -0.39549 N   0  0  0  0  0  0
  -0.26050   2.51172  -1.17316 Cl  0  0  0  0  0  0
   1.30608   0.44013  -0.06453 C   0  0  0  0  0  0
  -1.00206   1.10799  -1.02954 O   0  0  0  0  0  0
  -1.39461   1.74510  -0.03000 C   0  0  0  0  0  0
   1.37484  -0.13024   0.54196 C   0  0  0  0  0  0
   1.15795   0.09881  -0.73282 O   0  0  0  0  0  0
  -0.61608   0.48721  -1.27315 C   0  0  0  0  0  0
  -1.98664   1.19679   0.17877 C   0  0  0  0  0  0
   2.02575  -0.63450   0.44157 C   0  0  0  0  0  0
   0.73913  -0.55304   0.58632 O   0  0  0  0  0  0
  -1.13310  -0.02086  -1.67986 C   0  0  0  0  0  0
  -0.06539   0.73291  -1.74006 O   0  0  0  0  0  0
  -2.63808   1.54520   0.56739 C   0  0  0  0  0  0
  -1.67396   0.66046   0.62669 O   0  0  0  0  0  0
  -0.75243  -0.67054  -2.02722 C   0  0  0  0  0  0
  -1.66336  -0.28737  -1.19881 O   0  0  0  0  0  0
  -3.21293   0.98856   0.78618 C   0  0  0  0  0  0
  -2.97801   2.06352   0.11816 O   0  0  0  0  0  0
   3.27138   1.41556  -1.54611 H   0  0  0  0  0  0
   3.46041   3.18737  -1.77306 H   0  0  0  0  0  0
   2.28624   2.27325  -2.77918 H   0  0  0  0  0  0
   1.63281   3.42259  -1.46919 H   0  0  0  0  0  0
   2.02958   0.89584  -1.13870 H   0  0  0  0  0  0
   3.18593   3.25706  -0.55443 H   0  0  0  0  0  0
   1.79956   1.80034  -2.63670 H   0  0  0  0  0  0
  -0.04167   2.45996   0.47743 H   0  0  0  0  0  0
  -0.20824   0.52531   0.42773 H   0  0  0  0  0  0
   0.97465   1.59894   0.97952 H   0  0  0  0  0  0
   2.27190   0.96512  -0.10412 H   0  0  0  0  0  0
  -1.81465   2.55272  -0.64751 H   0  0  0  0  0  0
  -1.06877   2.31785   0.85079 H   0  0  0  0  0  0
   1.52696   0.43427   1.47372 H   0  0  0  0  0  0
   1.07794   0.79095  -1.45014 H   0  0  0  0  0  0
  -0.18458  -0.06881  -0.42778 H   0  0  0  0  0  0
  -2.37999   0.76122  -0.75158 H   0  0  0  0  0  0
   1.90006  -1.21576  -0.48382 H   0  0  0  0  0  0
   2.09399  -1.32033   1.29889 H   0  0  0  0  0  0
   2.94653  -0.03622   0.37651 H   0  0  0  0  0  0
  -0.05211   0.04633   0.70755 H   0  0  0  0  0  0
  -1.57899   0.57949  -2.48655 H   0  0  0  0  0  0
   0.54904   1.34248  -1.23915 H   0  0  0  0  0  0
  -2.22874   2.01734   1.47266 H   0  0  0  0  0  0
  -0.89443   0.24649   0.15662 H   0  0  0  0  0  0
  -1.48907  -1.27850  -2.57289 H   0  0  0  0  0  0
  -0.28128  -1.28168  -1.24330 H   0  0  0  0  0  0
   0.01809  -0.31336  -2.72630 H   0  0  0  0  0  0
  -2.13716   0.47989  -0.76657 H   0  0  0  0  0  0
  -3.61943   0.50738  -0.11561 H   0  0  0  0  0  0
  -4.02480   1.49408   1.32961 H   0  0  0  0  0  0
  -2.75692   0.22602   1.43470 H   0  0  0  0  0  0
  -2.30855   2.75094  -0.16339 H   0  0  0  0  0  0
  1  2  1  0  0  0
  2  3  1  0  0  0
  2  4  1  0  0  0
  3  5  1  0  0  0
  3  6  1  0  0  0
  5  7  1  0  0  0
  7  8  1  0  0  0
  7  9  1  0  0  0
  8 10  1  0  0  0
  8 11  1  0  0  0
  9 12  1  0  0  0
 10 13  1  0  0  0
 10 14  1  0  0  0
 12 15  1  0  0  0
 12 16  1  0  0  0
 13 17  1  0  0  0
 14 18  1  0  0  0
 15 19  1  0  0  0
 15 20  1  0  0  0
 17 21  1  0  0  0
 17 22  1  0  0  0
 18 23  1  0  0  0
 18 24  1  0  0  0
 21 25  1  0  0  0
 21 26  1  0  0  0
 23 27  1  0  0  0
 23 28  1  0  0  0
 29  1  1  0  0  0
 30  1  1  0  0  0
 31  1  1  0  0  0
 32  2  1  0  0  0
 33  3  1  0  0  0
 34  4  1  0  0  0
 35  6  1  0  0  0
 36  8  1  0  0  0
 37  9  1  0  0  0
 38  9  1  0  0  0
 39 12  1  0  0  0
 40 14  1  0  0  0
 41 14  1  0  0  0
 42 15  1  0  0  0
 43 16  1  0  0  0
 44 17  1  0  0  0
 45 18  1  0  0  0
 46 19  1  0  0  0
 47 19  1  0  0  0
 48 19  1  0  0  0
 49 20  1  0  0  0
 50 21  1  0  0  0
 51 22  1  0  0  0
 52 23  1  0  0  0
 53 24  1  0  0  0
 54 25  1  0  0  0
 55 25  1  0  0  0
 56 25  1  0  0  0
 57 26  1  0  0  0
 58 27  1  0  0  0
 59 27  1  0  0  0
 60 27  1  0  0  0
 61 28  1  0  0  0
M  END
