CIP:SSRSR;BB:
__Jmol-14_05291708123D 1   1.00000     0.00000     0
Jmol version 14.17.2  2017-05-27 15:31 EXTRACT: ({0:16})
 17 16  0  0  0  0              1 V2000
  -1.13557  -0.99883   0.18438 C   0  0  0  0  0  0
  -0.20886  -0.16859  -0.70493 C   0  0  0  0  0  0
  -2.17887  -1.82409  -0.59638 C   0  0  0  0  0  0
  -1.80937  -0.10470   1.23111 C   0  0  0  0  0  0
  -0.33543  -2.07392   0.94692 C   0  0  0  0  0  0
  -0.91357   0.75143  -1.40828 Cl  0  0  0  0  0  0
   0.75168  -1.11523  -1.87137 F   0  0  0  0  0  0
   0.51348   0.40185  -0.11543 H   0  0  0  0  0  0
  -3.10799  -1.01734  -1.87939 Cl  0  0  0  0  0  0
  -2.91818  -2.25577   0.08693 H   0  0  0  0  0  0
  -1.55742  -2.87750  -1.19893 F   0  0  0  0  0  0
   0.09011  -2.83867   0.29071 H   0  0  0  0  0  0
  -1.18849  -2.71800   1.79472 F   0  0  0  0  0  0
   1.20570  -1.47324   1.97767 Br  0  0  0  0  0  0
  -3.10002   1.21713   0.62716 Br  0  0  0  0  0  0
  -0.85813   0.58265   1.91691 F   0  0  0  0  0  0
  -2.37025  -0.69548   1.96298 H   0  0  0  0  0  0
  1  2  1  0  0  0
  1  3  1  0  0  0
  1  4  1  0  0  0
  1  5  1  0  0  0
  2  6  1  0  0  0
  2  7  1  0  0  0
  2  8  1  0  0  0
  3  9  1  0  0  0
  3 10  1  0  0  0
  3 11  1  0  0  0
  4 15  1  0  0  0
  4 16  1  0  0  0
  4 17  1  0  0  0
  5 12  1  0  0  0
  5 13  1  0  0  0
  5 14  1  0  0  0
M  END
