CIP:3R;
__Jmol-14_06031715053D 1   1.00000     0.00000     0
Jmol version 14.17.2  2017-05-27 15:31 EXTRACT: ({0:14})
 15 14  0  0  0  0              1 V2000
  -0.54828  11.14694  -0.20971 C   0  0  0  0  0  0
   0.97640  11.02312  -0.22589 C   0  0  0  0  0  0
   1.60013  12.41752  -0.18927 C   0  0  0  0  0  0
   3.12392  12.30136  -0.18501 C   0  0  0  0  0  0
   1.18721  13.14766  -1.33449 O   0  0  0  0  0  0
   1.26779  12.94614   0.73341 H   0  0  0  0  0  0
  -0.87682  11.54385   0.77475 H   0  0  0  0  0  0
  -0.87168  11.84071  -1.01512 H   0  0  0  0  0  0
  -1.00251  10.14666  -0.37594 H   0  0  0  0  0  0
   1.31087  10.44476   0.66175 H   0  0  0  0  0  0
   1.29601  10.49911  -1.15196 H   0  0  0  0  0  0
   3.51806  12.64128   0.79662 H   0  0  0  0  0  0
   3.41465  11.24241  -0.35417 H   0  0  0  0  0  0
   3.54565  12.93644  -0.99336 H   0  0  0  0  0  0
   0.67108  14.01120  -1.22506 H   0  0  0  0  0  0
  1  2  1  0  0  0
  2  3  1  0  0  0
  3  4  1  0  0  0
  3  5  1  0  0  0
  6  3  1  0  0  0
  7  1  1  0  0  0
  8  1  1  0  0  0
  9  1  1  0  0  0
 10  2  1  0  0  0
 11  2  1  0  0  0
 12  4  1  0  0  0
 13  4  1  0  0  0
 14  4  1  0  0  0
 15  5  1  0  0  0
M  END
