CIP:1S 3E 4R 5E 8E 9E;
__Jmol-14_06031715053D 1   1.00000     0.00000     0
Jmol version 14.17.2  2017-05-27 15:31 EXTRACT: ({0:15})
 16 16  0  0  0  0              1 V2000
   0.53339  -1.43129  -0.20142 C   0  0  0  0  0  0
   3.77381  -0.48800  -0.29330 Cl  0  0  0  0  0  0
  -0.81494  -0.77650   0.03936 C   0  0  0  0  0  0
  -0.24965   0.63043   0.00213 C   0  0  0  0  0  0
   1.11165  -0.03070  -0.12050 C   0  0  0  0  0  0
   0.94170  -2.29179   0.86816 O   0  0  0  0  0  0
  -0.62329   1.36987  -1.16621 O   0  0  0  0  0  0
   2.35183   0.45661  -0.15165 C   0  0  0  0  0  0
  -2.03742  -1.27086   0.23320 C   0  0  0  0  0  0
  -3.44409  -0.33076   0.49977 Cl  0  0  0  0  0  0
   0.64639  -1.93341  -1.16898 H   0  0  0  0  0  0
  -0.40359   1.22844   0.90731 H   0  0  0  0  0  0
   1.89654  -2.40969   0.72274 H   0  0  0  0  0  0
  -1.58189   1.50180  -1.06498 H   0  0  0  0  0  0
   2.55977   1.51802  -0.08791 H   0  0  0  0  0  0
  -2.23637  -2.33588   0.24444 H   0  0  0  0  0  0
  1  3  1  0  0  0
  5  1  1  0  0  0
  1  6  1  0  0  0
  1 11  1  0  0  0
  8  2  1  0  0  0
  3  4  1  0  0  0
  3  9  2  0  0  0
  4  5  1  0  0  0
  4  7  1  0  0  0
  4 12  1  0  0  0
  5  8  2  0  0  0
  6 13  1  0  0  0
  7 14  1  0  0  0
  8 15  1  0  0  0
  9 10  1  0  0  0
  9 16  1  0  0  0
M  END
