CIP:2S 5R 8R 11R 14R;
__Jmol-14_06031715053D 1   1.00000     0.00000     0
Jmol version 14.17.2  2017-05-27 15:31 EXTRACT: ({0:22})
 23 22  0  0  0  0              1 V2000
  -2.20885  -1.09940  -0.84544 C   0  0  0  0  0  0
  -1.42952  -0.93124  -0.83429 C   0  0  0  0  0  0
  -2.41454  -1.73789  -0.86611 O   0  0  0  0  0  0
  -2.72482  -0.58777  -0.84480 O   0  0  0  0  0  0
  -1.05162  -1.14595  -1.55357 C   0  0  0  0  0  0
  -1.19728  -1.24901  -0.40080 H   0  0  0  0  0  0
  -1.28866  -0.02427  -0.59541 Cl  0  0  0  0  0  0
  -0.22058  -1.28639  -1.51321 C   0  0  0  0  0  0
  -1.27287  -1.66953  -1.70107 H   0  0  0  0  0  0
  -1.32297  -0.58421  -2.26908 Cl  0  0  0  0  0  0
   0.29909  -0.66927  -1.26556 C   0  0  0  0  0  0
   0.07214  -1.67377  -2.32919 Cl  0  0  0  0  0  0
  -0.16172  -1.71568  -1.11929 H   0  0  0  0  0  0
   1.10870  -0.89431  -1.18843 C   0  0  0  0  0  0
   0.24816   0.07771  -1.84847 Cl  0  0  0  0  0  0
   0.12334  -0.48758  -0.73848 H   0  0  0  0  0  0
   1.23006  -1.62853  -0.60369 Cl  0  0  0  0  0  0
   1.60060  -0.32603  -0.93125 C   0  0  0  0  0  0
   1.30376  -1.06226  -1.71471 H   0  0  0  0  0  0
   2.26018  -0.37460  -1.04485 O   0  0  0  0  0  0
   1.36244   0.25692  -0.56949 O   0  0  0  0  0  0
  -2.29808   0.31602  -0.81239 H   0  0  0  0  0  0
   0.36882   0.20437  -0.46967 H   0  0  0  0  0  0
  1  2  1  0  0  0
  1  3  2  0  0  0
  1  4  1  0  0  0
  2  5  1  0  0  0
  2  6  1  0  0  0
  2  7  1  0  0  0
  5  8  1  0  0  0
  5  9  1  0  0  0
  5 10  1  0  0  0
  8 11  1  0  0  0
  8 12  1  0  0  0
  8 13  1  0  0  0
 11 14  1  0  0  0
 11 15  1  0  0  0
 11 16  1  0  0  0
 14 17  1  0  0  0
 14 18  1  0  0  0
 14 19  1  0  0  0
 18 20  2  0  0  0
 18 21  1  0  0  0
 22  4  1  0  0  0
 23 21  1  0  0  0
M  END
