CIP:1S;
__Jmol-14_06031715053D 1   1.00000     0.00000     0
Jmol version 14.17.2  2017-05-27 15:31 EXTRACT: ({0:12})
 13 12  0  0  0  0              1 V2000
  -0.97005  -0.22610  -1.02689 S   0  0  0  0  0  0
  -1.97942  -0.91835  -0.16056 O   0  0  0  0  0  0
  -0.88011   1.50152  -0.50843 C   0  0  0  0  0  0
   0.69280  -0.72390  -0.48515 C   0  0  0  0  0  0
   0.82870  -0.84401   1.01975 C   0  0  0  0  0  0
  -0.05074   1.99898  -1.03254 H   0  0  0  0  0  0
  -0.70952   1.55020   0.57717 H   0  0  0  0  0  0
  -1.82528   2.00780  -0.75410 H   0  0  0  0  0  0
   1.45159  -0.03661  -0.88749 H   0  0  0  0  0  0
   0.99403  -1.66119  -0.97582 H   0  0  0  0  0  0
   0.12143  -1.59943   1.39270 H   0  0  0  0  0  0
   0.60774   0.12720   1.48659 H   0  0  0  0  0  0
   1.85559  -1.14696   1.27222 H   0  0  0  0  0  0
  2  1  2  0  0  0
  3  1  1  0  0  0
  4  1  1  0  0  0
  5  4  1  0  0  0
  6  3  1  0  0  0
  7  3  1  0  0  0
  8  3  1  0  0  0
  9  4  1  0  0  0
 10  4  1  0  0  0
 11  5  1  0  0  0
 12  5  1  0  0  0
 13  5  1  0  0  0
M  END
