CIP:;
__Jmol-14_06031715063D 1   1.00000     0.00000     0
Jmol version 14.17.2  2017-05-27 15:31 EXTRACT: ({0:15})
 16 20  0  0  0  0              1 V2000
  -0.66202   0.85130   0.65579 C   0  0  0  0  0  0
   0.87090   0.76918   0.66601 C   0  0  0  0  0  0
   0.78890  -0.76331   0.65678 C   0  0  0  0  0  0
  -0.74339  -0.68136   0.64694 C   0  0  0  0  0  0
  -0.73328  -0.67198  -0.88736 C   0  0  0  0  0  0
   0.79894  -0.75458  -0.87764 C   0  0  0  0  0  0
   0.88127   0.77737  -0.86842 C   0  0  0  0  0  0
  -0.65030   0.85996  -0.87874 C   0  0  0  0  0  0
  -1.25668   1.50453   1.27976 H   0  0  0  0  0  0
   1.52215   1.35733   1.29904 H   0  0  0  0  0  0
   1.37698  -1.42142   1.28259 H   0  0  0  0  0  0
  -1.40387  -1.27507   1.26527 H   0  0  0  0  0  0
  -1.38710  -1.25890  -1.51828 H   0  0  0  0  0  0
   1.39055  -1.41111  -1.50201 H   0  0  0  0  0  0
   1.54571   1.37086  -1.48252 H   0  0  0  0  0  0
  -1.23630   1.52026  -1.50467 H   0  0  0  0  0  0
  2  1  1  0  0  0
  3  2  1  0  0  0
  4  3  1  0  0  0
  4  1  1  0  0  0
  5  4  1  0  0  0
  6  5  1  0  0  0
  6  3  1  0  0  0
  7  6  1  0  0  0
  7  2  1  0  0  0
  8  7  1  0  0  0
  8  1  1  0  0  0
  8  5  1  0  0  0
  1  9  1  0  0  0
  2 10  1  0  0  0
  3 11  1  0  0  0
  4 12  1  0  0  0
  5 13  1  0  0  0
  6 14  1  0  0  0
  7 15  1  0  0  0
  8 16  1  0  0  0
M  END
