CIP:SRRRR;BB:
__Jmol-14_05291708123D 1   1.00000     0.00000     0
Jmol version 14.17.2  2017-05-27 15:31 EXTRACT: ({0:22})
 23 22  0  0  0  0              1 V2000
   2.22564   1.09940  -0.80019 C   0  0  0  0  0  0
   1.44625   0.93124  -0.80494 C   0  0  0  0  0  0
   2.43171   1.73789  -0.81665 O   0  0  0  0  0  0
   2.74149   0.58777  -0.78902 O   0  0  0  0  0  0
   1.08311   1.14595  -1.53178 C   0  0  0  0  0  0
   1.20521   1.24901  -0.37628 H   0  0  0  0  0  0
   1.30054   0.02427  -0.56899 Cl  0  0  0  0  0  0
   0.25142   1.28639  -1.50839 C   0  0  0  0  0  0
   1.30732   1.66953  -1.67474 H   0  0  0  0  0  0
   1.36900   0.58421  -2.24161 Cl  0  0  0  0  0  0
  -0.27320   0.66926  -1.27140 C   0  0  0  0  0  0
  -0.02459   1.67377  -2.33018 Cl  0  0  0  0  0  0
   0.18453   1.71568  -1.11576 H   0  0  0  0  0  0
  -1.08422   0.89431  -1.21081 C   0  0  0  0  0  0
  -0.21038  -0.07771  -1.85315 Cl  0  0  0  0  0  0
  -0.10824   0.48758  -0.74084 H   0  0  0  0  0  0
  -1.21748   1.62853  -0.62867 Cl  0  0  0  0  0  0
  -1.58126   0.32603  -0.96372 C   0  0  0  0  0  0
  -1.26849   1.06226  -1.74096 H   0  0  0  0  0  0
  -2.23839   0.37460  -1.09076 O   0  0  0  0  0  0
  -1.35053  -0.25692  -0.59718 O   0  0  0  0  0  0
   2.31418  -0.31602  -0.76532 H   0  0  0  0  0  0
  -0.35916  -0.20437  -0.47710 H   0  0  0  0  0  0
  1  2  1  0  0  0
  1  3  2  0  0  0
  1  4  1  0  0  0
  2  5  1  0  0  0
  2  6  1  0  0  0
  2  7  1  0  0  0
  5  8  1  0  0  0
  5  9  1  0  0  0
  5 10  1  0  0  0
  8 11  1  0  0  0
  8 12  1  0  0  0
  8 13  1  0  0  0
 11 14  1  0  0  0
 11 15  1  0  0  0
 11 16  1  0  0  0
 14 17  1  0  0  0
 14 18  1  0  0  0
 14 19  1  0  0  0
 18 20  2  0  0  0
 18 21  1  0  0  0
 22  4  1  0  0  0
 23 21  1  0  0  0
M  END
