CIP:1R;
__Jmol-14_06031715053D 1   1.00000     0.00000     0
Jmol version 14.17.2  2017-05-27 15:31 EXTRACT: ({0:22})
 23 23  0  0  0  0              1 V2000
  -0.98550   0.07832   1.36744 P   0  0  0  0  0  0
  -1.62479  -1.61705   1.20283 C   0  0  0  0  0  0
  -2.07233   1.01972   0.22571 C   0  0  0  0  0  0
  -2.15079   0.52524  -1.20734 C   0  0  0  0  0  0
   0.63004   0.09290   0.54866 C   0  0  0  0  0  0
   1.54207   1.09993   0.90892 C   0  0  0  0  0  0
   2.82336   1.14569   0.35165 C   0  0  0  0  0  0
   3.21272   0.19054  -0.58078 C   0  0  0  0  0  0
   2.31635  -0.80447  -0.96176 C   0  0  0  0  0  0
   1.03775  -0.85233  -0.40031 C   0  0  0  0  0  0
  -0.93022  -2.31948   1.68675 H   0  0  0  0  0  0
  -1.71980  -1.87126   0.13683 H   0  0  0  0  0  0
  -2.61092  -1.68559   1.68537 H   0  0  0  0  0  0
  -1.78533   2.08158   0.23454 H   0  0  0  0  0  0
  -3.08523   1.08447   0.64978 H   0  0  0  0  0  0
  -2.53022  -0.50719  -1.21877 H   0  0  0  0  0  0
  -1.14866   0.55257  -1.66008 H   0  0  0  0  0  0
  -2.83035   1.17196  -1.78174 H   0  0  0  0  0  0
   1.24281   1.86431   1.64115 H   0  0  0  0  0  0
   3.52456   1.93851   0.65127 H   0  0  0  0  0  0
   4.22298   0.22081  -1.01489 H   0  0  0  0  0  0
   2.61588  -1.55560  -1.70747 H   0  0  0  0  0  0
   0.34046  -1.64520  -0.70877 H   0  0  0  0  0  0
  2  1  1  0  0  0
  3  1  1  0  0  0
  5  1  1  0  0  0
  4  3  1  0  0  0
  6  5  2  0  0  0
 10  5  1  0  0  0
  7  6  1  0  0  0
  8  7  2  0  0  0
  9  8  1  0  0  0
 10  9  2  0  0  0
 11  2  1  0  0  0
 12  2  1  0  0  0
 13  2  1  0  0  0
 14  3  1  0  0  0
 15  3  1  0  0  0
 16  4  1  0  0  0
 17  4  1  0  0  0
 18  4  1  0  0  0
 19  6  1  0  0  0
 20  7  1  0  0  0
 21  8  1  0  0  0
 22  9  1  0  0  0
 23 10  1  0  0  0
M  END
