CIP:5S;
__Jmol-14_06031715053D 1   1.00000     0.00000     0
Jmol version 14.17.2  2017-05-27 15:31 EXTRACT: ({0:22})
 23 24  0  0  0  0              1 V2000
   1.26423   0.00616   0.03327 C   0  0  0  0  0  0
   2.04485   1.32575   0.18530 C   0  0  0  0  0  0
   0.73152   2.11820   0.05985 C   0  0  0  0  0  0
  -0.06805   0.79546  -0.02061 C   0  0  0  0  0  0
  -1.08985   0.54068   1.12736 C   0  0  0  0  0  0
  -2.27121   1.54170   1.03565 C   0  0  0  0  0  0
  -3.44979   1.20758   0.10810 C   0  0  0  0  0  0
  -3.62944   1.13601   1.63112 C   0  0  0  0  0  0
  -0.51280   0.69326   2.42294 O   0  0  0  0  0  0
   1.37270  -0.73173   0.84182 H   0  0  0  0  0  0
   1.50798  -0.61812  -0.83901 H   0  0  0  0  0  0
   2.82420   1.53215  -0.56305 H   0  0  0  0  0  0
   2.62034   1.45963   1.11314 H   0  0  0  0  0  0
   0.64491   2.80380  -0.79598 H   0  0  0  0  0  0
   0.48193   2.79997   0.88623 H   0  0  0  0  0  0
  -0.78253   0.61531  -0.83735 H   0  0  0  0  0  0
  -1.42877  -0.49804   1.00010 H   0  0  0  0  0  0
  -1.59396   2.40018   1.15547 H   0  0  0  0  0  0
  -3.47637   0.32727  -0.55095 H   0  0  0  0  0  0
  -3.95193   1.94894  -0.53083 H   0  0  0  0  0  0
  -3.79841   0.19894   2.18188 H   0  0  0  0  0  0
  -4.27397   1.82061   2.20199 H   0  0  0  0  0  0
   0.25623   0.06174   2.52185 H   0  0  0  0  0  0
  1  2  1  0  0  0
  2  3  1  0  0  0
  3  4  1  0  0  0
  4  5  1  0  0  0
  5  6  1  0  0  0
  6  7  1  0  0  0
  7  8  1  0  0  0
  1  4  1  0  0  0
  6  8  1  0  0  0
  5  9  1  0  0  0
 10  1  1  0  0  0
 11  1  1  0  0  0
 12  2  1  0  0  0
 13  2  1  0  0  0
 14  3  1  0  0  0
 15  3  1  0  0  0
 16  4  1  0  0  0
 17  5  1  0  0  0
 18  6  1  0  0  0
 19  7  1  0  0  0
 20  7  1  0  0  0
 21  8  1  0  0  0
 22  8  1  0  0  0
 23  9  1  0  0  0
M  END
