CIP:1S;
__Jmol-14_06031715053D 1   1.00000     0.00000     0
Jmol version 14.17.2  2017-05-27 15:31 EXTRACT: ({0:23})
 24 24  0  0  0  0              1 V2000
   0.98666   0.74105   0.38198 P   0  0  0  0  0  0
   1.53976   0.40292   1.68278 O   0  0  0  0  0  0
   1.04850   2.50836   0.34198 C   0  0  0  0  0  0
   2.16416   0.09699  -0.78207 C   0  0  0  0  0  0
   2.31667  -1.41135  -0.75369 C   0  0  0  0  0  0
  -0.61098   0.04728   0.32803 C   0  0  0  0  0  0
  -1.12377  -0.71064   1.38917 C   0  0  0  0  0  0
  -2.40467  -1.26192   1.32551 C   0  0  0  0  0  0
  -3.19299  -1.06214   0.19518 C   0  0  0  0  0  0
  -2.70045  -0.31154  -0.86966 C   0  0  0  0  0  0
  -1.41846   0.23884  -0.80282 C   0  0  0  0  0  0
   0.50389   2.91404   1.20733 H   0  0  0  0  0  0
   0.58333   2.87065  -0.58665 H   0  0  0  0  0  0
   2.09675   2.83958   0.38038 H   0  0  0  0  0  0
   3.14186   0.58134  -0.64232 H   0  0  0  0  0  0
   1.91851   0.43588  -1.79933 H   0  0  0  0  0  0
   1.34949  -1.88212  -0.98382 H   0  0  0  0  0  0
   2.64970  -1.72752   0.24588 H   0  0  0  0  0  0
   3.06145  -1.71880  -1.50253 H   0  0  0  0  0  0
  -0.50776  -0.87366   2.28581 H   0  0  0  0  0  0
  -2.79120  -1.85405   2.16811 H   0  0  0  0  0  0
  -4.20243  -1.49614   0.14338 H   0  0  0  0  0  0
  -3.32129  -0.15214  -1.76361 H   0  0  0  0  0  0
  -1.03702   0.83033  -1.64818 H   0  0  0  0  0  0
  2  1  2  0  0  0
  3  1  1  0  0  0
  4  1  1  0  0  0
  6  1  1  0  0  0
  5  4  1  0  0  0
  7  6  2  0  0  0
 11  6  1  0  0  0
  8  7  1  0  0  0
  9  8  2  0  0  0
 10  9  1  0  0  0
 11 10  2  0  0  0
 12  3  1  0  0  0
 13  3  1  0  0  0
 14  3  1  0  0  0
 15  4  1  0  0  0
 16  4  1  0  0  0
 17  5  1  0  0  0
 18  5  1  0  0  0
 19  5  1  0  0  0
 20  7  1  0  0  0
 21  8  1  0  0  0
 22  9  1  0  0  0
 23 10  1  0  0  0
 24 11  1  0  0  0
M  END
