CIP:7S;
__Jmol-14_06031715053D 1   1.00000     0.00000     0
Jmol version 14.17.2  2017-05-27 15:31 EXTRACT: ({0:67})
 68 72  0  0  0  0              1 V2000
   5.49119   6.92433   6.02393 C   0  0  0  0  0  0
   7.00255   6.77883   5.84835 C   0  0  0  0  0  0
   6.22747   7.77524   4.98452 C   0  0  0  0  0  0
   6.44826   9.17281   5.55938 C   0  0  0  0  0  0
   5.75208  10.21734   4.67835 C   0  0  0  0  0  0
   4.98844  11.22632   5.55786 C   0  0  0  0  0  0
   5.87634  11.99101   6.58023 C   0  0  0  0  0  0
   4.21772  12.20369   4.65543 C   0  0  0  0  0  0
   3.25401  13.04658   5.49828 C   0  0  0  0  0  0
   2.20820  13.68591   4.59160 C   0  0  0  0  0  0
   1.63716  14.91314   5.30439 C   0  0  0  0  0  0
   0.84841  13.60557   5.29262 C   0  0  0  0  0  0
   3.97945  10.42766   6.40436 C   0  0  0  0  0  0
   2.98413   9.67456   5.52304 C   0  0  0  0  0  0
   2.17791   8.71925   6.39397 C   0  0  0  0  0  0
   1.00413   8.19037   5.57086 C   0  0  0  0  0  0
   2.25052   7.32800   5.76231 C   0  0  0  0  0  0
   7.06358  12.71797   5.88575 C   0  0  0  0  0  0
   7.93759  11.80772   4.99174 C   0  0  0  0  0  0
   9.12856  12.59592   4.40348 C   0  0  0  0  0  0
   9.13591  14.04053   4.94176 C   0  0  0  0  0  0
   7.81692  14.72717   4.52709 C   0  0  0  0  0  0
   6.59481  13.93041   5.05018 C   0  0  0  0  0  0
   7.95853  13.24163   7.02781 C   0  0  0  0  0  0
   9.19249  13.98845   6.47958 C   0  0  0  0  0  0
   5.07365  12.96068   7.23648 O   0  0  0  0  0  0
   5.01914   7.33816   6.92721 H   0  0  0  0  0  0
   4.76850   6.13627   5.76573 H   0  0  0  0  0  0
   7.48565   5.87415   5.45062 H   0  0  0  0  0  0
   7.73628   7.07605   6.61209 H   0  0  0  0  0  0
   6.11402   7.96923   3.90772 H   0  0  0  0  0  0
   7.51864   9.39534   5.68082 H   0  0  0  0  0  0
   6.11236   9.23744   6.60484 H   0  0  0  0  0  0
   5.08954   9.74433   3.93855 H   0  0  0  0  0  0
   6.46572  10.72271   4.01104 H   0  0  0  0  0  0
   6.29011  11.26094   7.29141 H   0  0  0  0  0  0
   3.69131  11.67663   3.84604 H   0  0  0  0  0  0
   4.90053  12.83613   4.06909 H   0  0  0  0  0  0
   3.78901  13.79984   6.09525 H   0  0  0  0  0  0
   2.78890  12.45273   6.29892 H   0  0  0  0  0  0
   2.58996  13.46651   3.58357 H   0  0  0  0  0  0
   1.31275  15.82521   4.78202 H   0  0  0  0  0  0
   2.07810  15.35067   6.21221 H   0  0  0  0  0  0
  -0.10517  13.47337   4.76045 H   0  0  0  0  0  0
   0.66018  12.99882   6.19064 H   0  0  0  0  0  0
   3.45977  11.07964   7.12189 H   0  0  0  0  0  0
   4.49458   9.74366   7.09486 H   0  0  0  0  0  0
   3.48484   9.15052   4.69560 H   0  0  0  0  0  0
   2.33533  10.36108   4.95935 H   0  0  0  0  0  0
   2.30489   9.13606   7.40400 H   0  0  0  0  0  0
   0.69863   8.61383   4.60269 H   0  0  0  0  0  0
   0.02110   7.94457   5.99891 H   0  0  0  0  0  0
   2.94024   7.06342   4.94727 H   0  0  0  0  0  0
   2.26271   6.39414   6.34349 H   0  0  0  0  0  0
   7.34047  11.33450   4.19832 H   0  0  0  0  0  0
   8.27924  10.91769   5.54047 H   0  0  0  0  0  0
   9.11898  12.57696   3.30368 H   0  0  0  0  0  0
  10.08389  12.08817   4.60230 H   0  0  0  0  0  0
   9.99915  14.59273   4.54187 H   0  0  0  0  0  0
   7.76522  14.86940   3.43755 H   0  0  0  0  0  0
   7.78697  15.77345   4.86536 H   0  0  0  0  0  0
   5.93402  13.62069   4.22712 H   0  0  0  0  0  0
   5.91030  14.57343   5.62288 H   0  0  0  0  0  0
   8.25610  12.42673   7.70412 H   0  0  0  0  0  0
   7.38657  13.87587   7.72105 H   0  0  0  0  0  0
  10.12976  13.53482   6.83421 H   0  0  0  0  0  0
   9.28202  14.99469   6.91484 H   0  0  0  0  0  0
   4.30532  12.50710   7.68807 H   0  0  0  0  0  0
  1  2  1  0  0  0
  2  3  1  0  0  0
  3  1  1  0  0  0
  3  4  1  0  0  0
  4  5  1  0  0  0
  5  6  1  0  0  0
  7  6  1  0  0  0
  6  8  1  0  0  0
  8  9  1  0  0  0
  9 10  1  0  0  0
 10 11  1  0  0  0
 11 12  1  0  0  0
 12 10  1  0  0  0
  6 13  1  0  0  0
 13 14  1  0  0  0
 14 15  1  0  0  0
 15 16  1  0  0  0
 16 17  1  0  0  0
 17 15  1  0  0  0
  7 18  1  0  0  0
 18 19  1  0  0  0
 19 20  1  0  0  0
 20 21  1  0  0  0
 21 22  1  0  0  0
 22 23  1  0  0  0
 23 18  1  0  0  0
 18 24  1  0  0  0
 24 25  1  0  0  0
 25 21  1  0  0  0
  7 26  1  0  0  0
 27  1  1  0  0  0
 28  1  1  0  0  0
 29  2  1  0  0  0
 30  2  1  0  0  0
 31  3  1  0  0  0
 32  4  1  0  0  0
 33  4  1  0  0  0
 34  5  1  0  0  0
 35  5  1  0  0  0
 36  7  1  0  0  0
 37  8  1  0  0  0
 38  8  1  0  0  0
 39  9  1  0  0  0
 40  9  1  0  0  0
 41 10  1  0  0  0
 42 11  1  0  0  0
 43 11  1  0  0  0
 44 12  1  0  0  0
 45 12  1  0  0  0
 46 13  1  0  0  0
 47 13  1  0  0  0
 48 14  1  0  0  0
 49 14  1  0  0  0
 50 15  1  0  0  0
 51 16  1  0  0  0
 52 16  1  0  0  0
 53 17  1  0  0  0
 54 17  1  0  0  0
 55 19  1  0  0  0
 56 19  1  0  0  0
 57 20  1  0  0  0
 58 20  1  0  0  0
 59 21  1  0  0  0
 60 22  1  0  0  0
 61 22  1  0  0  0
 62 23  1  0  0  0
 63 23  1  0  0  0
 64 24  1  0  0  0
 65 24  1  0  0  0
 66 25  1  0  0  0
 67 25  1  0  0  0
 68 26  1  0  0  0
M  END
