CIP:EE;BB:
__Jmol-14_05291708123D 1   1.00000     0.00000     0
Jmol version 14.17.2  2017-05-27 15:31 EXTRACT: ({0:7})
  8  7  0  0  0  0              1 V2000
  -2.28757   2.15793   0.91142 C   0  0  0  0  0  0
  -0.99458   2.12612   0.91795 C   0  0  0  0  0  0
   0.20633   2.10506   0.92155 C   0  0  0  0  0  0
   1.50063   2.07313   0.92178 C   0  0  0  0  0  0
   2.40946   3.67210   1.03030 Br  0  0  0  0  0  0
  -3.14635   0.68706   0.98165 Cl  0  0  0  0  0  0
  -2.89708   3.04828   0.84813 H   0  0  0  0  0  0
   2.09001   1.17552   0.79330 H   0  0  0  0  0  0
  1  2  2  0  0  0
  1  6  1  0  0  0
  1  7  1  0  0  0
  2  3  2  0  0  0
  3  4  2  0  0  0
  4  5  1  0  0  0
  4  8  1  0  0  0
M  END
