CIP:PP;BB:
__Jmol-14_05291708123D 1   1.00000     0.00000     0
Jmol version 14.17.2  2017-05-27 15:31 EXTRACT: ({0:6})
  7  6  0  0  0  0              1 V2000
  -3.74851  -1.03279   0.88825 C   0  0  0  0  0  0
  -2.31522  -1.07467   0.75594 C   0  0  0  0  0  0
  -0.88218  -1.11673   0.62416 C   0  0  0  0  0  0
  -4.46943  -0.27057   0.07082 F   0  0  0  0  0  0
   0.11157  -0.03364   1.57359 Cl  0  0  0  0  0  0
  -4.24700  -1.63103   1.66517 H   0  0  0  0  0  0
  -0.41311  -1.82796  -0.07164 H   0  0  0  0  0  0
  1  2  2  0  0  0
  1  4  1  0  0  0
  2  3  2  0  0  0
  3  5  1  0  0  0
  6  1  1  0  0  0
  7  3  1  0  0  0
M  END
