CIP:1R 3R 5R 7S 9R;
__Jmol-14_06031715063D 1   1.00000     0.00000     0
Jmol version 14.17.2  2017-05-27 15:31 EXTRACT: ({0:39})
 40 39  0  0  0  0              1 V2000
  -3.72799   1.64956   0.71096 C   0  0  0  0  0  0
  -2.88125   0.65925  -0.05819 N   0  0  0  0  0  0
  -1.55084   1.06231  -0.67776 C   0  0  0  0  0  0
  -0.39773   0.19232  -0.21734 N   0  0  0  0  0  0
  -0.30696  -0.17983   1.24135 C   0  0  0  0  0  0
   0.25336  -1.60431   1.48598 C   0  0  0  0  0  0
  -3.66329  -0.42234  -0.76359 C   0  0  0  0  0  0
  -2.88996  -1.73022  -1.05732 C   0  0  0  0  0  0
   0.90708   0.29268  -0.97278 C   0  0  0  0  0  0
   1.50125   1.58098  -0.84467 O   0  0  0  0  0  0
  -4.19842   0.07677  -1.98886 O   0  0  0  0  0  0
   0.79409  -0.06845  -2.47416 C   0  0  0  0  0  0
  -1.24525   2.52385  -0.72358 C   0  0  0  0  0  0
  -1.59772   3.22010  -1.70537 O   0  0  0  0  0  0
  -0.57922   3.18770   0.24686 O   0  0  0  0  0  0
   0.46732   0.74951   1.99467 O   0  0  0  0  0  0
  -3.93216   2.87860   0.01743 O   0  0  0  0  0  0
  -3.18869   1.93492   2.13076 C   0  0  0  0  0  0
  -4.70323   1.15001   0.80774 H   0  0  0  0  0  0
  -1.69381   0.84283  -1.74612 H   0  0  0  0  0  0
  -1.35053  -0.15510   1.58825 H   0  0  0  0  0  0
   0.18847  -1.84492   2.55737 H   0  0  0  0  0  0
   1.30440  -1.64524   1.16405 H   0  0  0  0  0  0
  -0.33512  -2.33375   0.91011 H   0  0  0  0  0  0
  -4.45397  -0.69423  -0.04882 H   0  0  0  0  0  0
  -2.07365  -1.52258  -1.76480 H   0  0  0  0  0  0
  -3.57517  -2.47093  -1.49531 H   0  0  0  0  0  0
  -2.47129  -2.12694  -0.12066 H   0  0  0  0  0  0
   1.55408  -0.46067  -0.49964 H   0  0  0  0  0  0
   1.57633   1.81867   0.12376 H   0  0  0  0  0  0
  -4.71386  -0.64739  -2.44703 H   0  0  0  0  0  0
   0.08257   0.61342  -2.96281 H   0  0  0  0  0  0
   0.43840  -1.10432  -2.57640 H   0  0  0  0  0  0
   1.78104   0.02895  -2.95004 H   0  0  0  0  0  0
  -0.34177   2.55305   0.98227 H   0  0  0  0  0  0
   0.11612   1.67392   1.84586 H   0  0  0  0  0  0
  -4.28101   2.68947  -0.90047 H   0  0  0  0  0  0
  -3.91600   2.54826   2.68289 H   0  0  0  0  0  0
  -2.23336   2.47538   2.05841 H   0  0  0  0  0  0
  -3.03279   0.98426   2.66175 H   0  0  0  0  0  0
  1  2  1  0  0  0
  2  3  1  0  0  0
  3  4  1  0  0  0
  4  5  1  0  0  0
  5  6  1  0  0  0
  7  8  1  0  0  0
  2  7  1  0  0  0
  9 10  1  0  0  0
  4  9  1  0  0  0
  7 11  1  0  0  0
  9 12  1  0  0  0
  3 13  1  0  0  0
 13 14  2  0  0  0
 13 15  1  0  0  0
  5 16  1  0  0  0
  1 17  1  0  0  0
  1 18  1  0  0  0
 19  1  1  0  0  0
 20  3  1  0  0  0
 21  5  1  0  0  0
 22  6  1  0  0  0
 23  6  1  0  0  0
 24  6  1  0  0  0
 25  7  1  0  0  0
 26  8  1  0  0  0
 27  8  1  0  0  0
 28  8  1  0  0  0
 29  9  1  0  0  0
 30 10  1  0  0  0
 31 11  1  0  0  0
 32 12  1  0  0  0
 33 12  1  0  0  0
 34 12  1  0  0  0
 35 15  1  0  0  0
 36 16  1  0  0  0
 37 17  1  0  0  0
 38 18  1  0  0  0
 39 18  1  0  0  0
 40 18  1  0  0  0
M  END
