CIP:1S 5R;
__Jmol-14_06031715053D 1   1.00000     0.00000     0
Jmol version 14.17.2  2017-05-27 15:31 EXTRACT: ({0:13})
 14 15  0  0  0  0              1 V2000
  -0.13351  -1.23671   0.72158 C   0  0  0  0  0  0
  -1.34262  -0.86465   0.04114 C   0  0  0  0  0  0
  -1.38134   0.41234  -0.32937 C   0  0  0  0  0  0
  -0.19339   1.12916   0.02754 C   0  0  0  0  0  0
   0.66255   0.08313   0.76865 C   0  0  0  0  0  0
   1.23788  -1.13467   0.03306 C   0  0  0  0  0  0
  -0.19812  -1.69570   1.71094 H   0  0  0  0  0  0
   1.04466   0.31120   1.76593 H   0  0  0  0  0  0
  -2.16212  -1.57155  -0.15566 H   0  0  0  0  0  0
  -2.23390   0.86890  -0.85348 H   0  0  0  0  0  0
  -0.39349   2.02953   0.62695 H   0  0  0  0  0  0
   0.31978   1.57620  -0.83666 H   0  0  0  0  0  0
   1.37674  -1.17804  -1.05728 H   0  0  0  0  0  0
   2.13024  -1.68338   0.36865 H   0  0  0  0  0  0
  1  2  1  0  0  0
  1  6  1  0  0  0
  2  3  2  0  0  0
  3  4  1  0  0  0
  4  5  1  0  0  0
  5  6  1  0  0  0
  1  5  1  0  0  0
  1  7  1  0  0  0
  5  8  1  0  0  0
  9  2  1  0  0  0
 10  3  1  0  0  0
 11  4  1  0  0  0
 12  4  1  0  0  0
 13  6  1  0  0  0
 14  6  1  0  0  0
M  END
