CIP:ZREEZEZZZEZ;BB:
__Jmol-14_05291708123D 1   1.00000     0.00000     0
Jmol version 14.17.2  2017-05-27 15:31 EXTRACT: ({0:61})
 62 61  0  0  0  0              1 V2000
  -6.42691  -2.73472  -2.35728 C   0  0  0  0  0  0
  -5.72942  -1.91245  -1.83804 C   0  0  0  0  0  0
  -5.01902  -0.99659  -1.32497 C   0  0  0  0  0  0
  -3.86398  -1.33981  -0.42681 C   0  0  0  0  0  0
  -2.76612  -2.01972  -1.13693 C   0  0  0  0  0  0
  -2.11296  -1.28925  -2.24693 C   0  0  0  0  0  0
  -2.38634  -3.25901  -0.73572 C   0  0  0  0  0  0
  -1.39432  -4.13394  -1.35969 C   0  0  0  0  0  0
  -2.00688  -5.42632  -1.66923 C   0  0  0  0  0  0
  -2.04076  -6.57828  -0.95003 C   0  0  0  0  0  0
  -1.38649  -6.77870   0.35824 C   0  0  0  0  0  0
  -2.76345  -7.73624  -1.51627 C   0  0  0  0  0  0
  -4.18729  -7.50084  -1.70282 C   0  0  0  0  0  0
  -4.99674  -7.37708  -0.73661 C   0  0  0  0  0  0
  -0.18078  -7.59337   0.28394 C   0  0  0  0  0  0
   0.70829  -7.40681  -0.59946 C   0  0  0  0  0  0
   1.49877  -7.20662  -1.47253 C   0  0  0  0  0  0
  -0.71913  -0.94185  -2.02048 C   0  0  0  0  0  0
  -0.30291  -0.43927  -0.93529 C   0  0  0  0  0  0
   0.08520   0.00897   0.10157 C   0  0  0  0  0  0
  -0.20438  -4.19592  -0.57895 O   0  0  0  0  0  0
  -1.05464  -3.72719  -2.31195 H   0  0  0  0  0  0
   0.49944   0.46663   1.20629 C   0  0  0  0  0  0
  -0.39300   0.69942   2.31969 C   0  0  0  0  0  0
  -7.19575  -3.56720  -2.92511 C   0  0  0  0  0  0
  -7.07787  -4.99395  -2.73063 C   0  0  0  0  0  0
   2.30461  -6.96799  -2.41854 C   0  0  0  0  0  0
   3.50215  -7.74642  -2.62381 C   0  0  0  0  0  0
  -5.77471  -7.25451   0.16313 C   0  0  0  0  0  0
  -6.61599  -7.12323   1.10091 C   0  0  0  0  0  0
  -6.26378  -7.22787   2.50097 C   0  0  0  0  0  0
  -5.24970   0.05749  -1.53877 H   0  0  0  0  0  0
  -4.20295  -1.93970   0.43065 H   0  0  0  0  0  0
  -3.49492  -0.44287   0.09213 H   0  0  0  0  0  0
  -2.69115  -0.38779  -2.49806 H   0  0  0  0  0  0
  -2.21360  -1.85683  -3.18380 H   0  0  0  0  0  0
  -2.88261  -3.65154   0.16408 H   0  0  0  0  0  0
  -2.52255  -5.47242  -2.63978 H   0  0  0  0  0  0
  -2.09568  -7.20317   1.08410 H   0  0  0  0  0  0
  -1.17041  -5.81104   0.83463 H   0  0  0  0  0  0
  -2.59843  -8.63241  -0.90010 H   0  0  0  0  0  0
  -2.29875  -8.05641  -2.46049 H   0  0  0  0  0  0
  -4.57789  -7.42711  -2.72849 H   0  0  0  0  0  0
  -0.03739  -8.39808   1.02007 H   0  0  0  0  0  0
   0.00574  -1.12372  -2.82763 H   0  0  0  0  0  0
  -0.41843  -4.56252   0.32647 H   0  0  0  0  0  0
   1.56938   0.69389   1.32280 H   0  0  0  0  0  0
  -0.87259  -0.24718   2.60939 H   0  0  0  0  0  0
  -1.16446   1.42628   2.02555 H   0  0  0  0  0  0
   0.17897   1.09631   3.17136 H   0  0  0  0  0  0
  -7.98394  -3.18839  -3.59239 H   0  0  0  0  0  0
  -7.21344  -5.23126  -1.66513 H   0  0  0  0  0  0
  -6.08161  -5.32742  -3.05663 H   0  0  0  0  0  0
  -7.84879  -5.50961  -3.32205 H   0  0  0  0  0  0
   2.08481  -6.13922  -3.10762 H   0  0  0  0  0  0
   3.23074  -8.79856  -2.79510 H   0  0  0  0  0  0
   4.14395  -7.67364  -1.73343 H   0  0  0  0  0  0
   4.04476  -7.36055  -3.49941 H   0  0  0  0  0  0
  -7.66476  -6.91990   0.83870 H   0  0  0  0  0  0
  -5.51571  -6.46057   2.74926 H   0  0  0  0  0  0
  -5.84568  -8.22559   2.70035 H   0  0  0  0  0  0
  -7.16224  -7.07699   3.11741 H   0  0  0  0  0  0
  1  2  2  0  0  0
  2  3  2  0  0  0
  3  4  1  0  0  0
  4  5  1  0  0  0
  5  6  1  0  0  0
  5  7  2  0  0  0
  7  8  1  0  0  0
  8  9  1  0  0  0
  9 10  2  0  0  0
 10 11  1  0  0  0
 10 12  1  0  0  0
 12 13  1  0  0  0
 13 14  2  0  0  0
 11 15  1  0  0  0
 15 16  2  0  0  0
 16 17  2  0  0  0
  6 18  1  0  0  0
 18 19  2  0  0  0
 19 20  2  0  0  0
  8 21  1  0  0  0
  8 22  1  0  0  0
 20 23  2  0  0  0
 23 24  1  0  0  0
  1 25  2  0  0  0
 25 26  1  0  0  0
 17 27  2  0  0  0
 27 28  1  0  0  0
 29 30  2  0  0  0
 14 29  2  0  0  0
 30 31  1  0  0  0
 32  3  1  0  0  0
 33  4  1  0  0  0
 34  4  1  0  0  0
 35  6  1  0  0  0
 36  6  1  0  0  0
 37  7  1  0  0  0
 38  9  1  0  0  0
 39 11  1  0  0  0
 40 11  1  0  0  0
 41 12  1  0  0  0
 42 12  1  0  0  0
 43 13  1  0  0  0
 44 15  1  0  0  0
 45 18  1  0  0  0
 46 21  1  0  0  0
 47 23  1  0  0  0
 48 24  1  0  0  0
 49 24  1  0  0  0
 50 24  1  0  0  0
 51 25  1  0  0  0
 52 26  1  0  0  0
 53 26  1  0  0  0
 54 26  1  0  0  0
 55 27  1  0  0  0
 56 28  1  0  0  0
 57 28  1  0  0  0
 58 28  1  0  0  0
 59 30  1  0  0  0
 60 31  1  0  0  0
 61 31  1  0  0  0
 62 31  1  0  0  0
M  END
