
  Mrv0541 03081414243D          

 19 18  0  0  0  0            999 V2000
   -3.4261    1.5362   -0.5521 C   0  0  0  0  0  0  0  0  0  0  0  0
   -3.4203    0.2106   -1.3670 C   0  0  2  0  0  0  0  0  0  0  0  0
   -2.0307   -0.5379   -1.5034 C   0  0  1  0  0  0  0  0  0  0  0  0
   -1.4832   -1.1948   -0.1674 C   0  0  2  0  0  0  0  0  0  0  0  0
   -0.8818   -0.2742    0.9693 C   0  0  1  0  0  0  0  0  0  0  0  0
   -0.4235   -1.0641    2.2572 C   0  0  2  0  0  0  0  0  0  0  0  0
   -1.4546   -2.0460    2.8897 C   0  0  0  0  0  0  0  0  0  0  0  0
   -2.0573   -1.5790   -2.6890 C   0  0  0  0  0  0  0  0  0  0  0  0
   -3.0098   -2.7843   -2.5076 C   0  0  0  0  0  0  0  0  0  0  0  0
    0.2143    0.7492    0.4949 C   0  0  0  0  0  0  0  0  0  0  0  0
    1.5625    0.1719   -0.0028 C   0  0  0  0  0  0  0  0  0  0  0  0
   -0.5028   -2.1960   -0.4627 O   0  0  0  0  0  0  0  0  0  0  0  0
   -0.0402   -0.1873    3.2521 F   0  0  0  0  0  0  0  0  0  0  0  0
   -3.9108    0.5236   -2.6193 F   0  0  0  0  0  0  0  0  0  0  0  0
   -2.9077   -4.0530   -4.2058 I   0  0  0  0  0  0  0  0  0  0  0  0
    2.7602    1.6038   -0.4927 Br  0  0  0  0  0  0  0  0  0  0  0  0
   -2.9420   -1.2533    3.4091 Cl  0  0  0  0  0  0  0  0  0  0  0  0
   -4.5333    2.3096   -0.8202 F   0  0  0  0  0  0  0  0  0  0  0  0
   -2.3390   -1.7263    0.2571 H   0  0  0  0  0  0  0  0  0  0  0  0
  1  2  1  0  0  0  0
  2  3  1  0  0  0  0
  3  4  1  0  0  0  0
  4  5  1  0  0  0  0
  5  6  1  0  0  0  0
  6  7  1  0  0  0  0
  8  9  1  0  0  0  0
  3  8  1  0  0  0  0
 10 11  1  0  0  0  0
  5 10  1  0  0  0  0
  4 12  1  0  0  0  0
  6 13  1  0  0  0  0
  2 14  1  0  0  0  0
  9 15  1  0  0  0  0
 11 16  1  0  0  0  0
  7 17  1  0  0  0  0
  1 18  1  0  0  0  0
  4 19  1  0  0  0  0
M  END
