c:/jmol-dev/bobtest/cip/RS/(2S,4aS,8aS)-8a-chloro-2-fluoro-decahydronaphthalen-4a-ol.sdf
__Jmol-14_05291710493D 1   1.00000     0.00000     0
Jmol version 14.17.2  2017-05-27 15:31 EXTRACT: ({0:28})
 29 30  0  0  0  0              1 V2000
   1.17773  -1.89867  -0.14377 C   0  0  0  0  0  0
  -0.12887  -2.49152   0.40794 C   0  0  0  0  0  0
  -0.11910  -4.01936   0.38724 C   0  0  0  0  0  0
   1.11079  -4.60888   1.07233 C   0  0  0  0  0  0
   2.42072  -4.02078   0.50640 C   0  0  0  0  0  0
   2.41639  -2.45095   0.59491 C   0  0  0  0  0  0
   3.72874  -1.91167  -0.01753 C   0  0  0  0  0  0
   3.64570  -4.61958   1.21330 C   0  0  0  0  0  0
   4.94595  -4.06033   0.63052 C   0  0  0  0  0  0
   4.97587  -2.53359   0.62789 C   0  0  0  0  0  0
   2.29797  -1.87405   2.31927 Cl  0  0  0  0  0  0
   5.08045  -2.11236   1.91601 F   0  0  0  0  0  0
   2.55327  -4.46454  -0.86593 O   0  0  0  0  0  0
   1.13527  -0.80467  -0.06170 H   0  0  0  0  0  0
   1.23394  -2.09962  -1.21681 H   0  0  0  0  0  0
  -0.97844  -2.12173  -0.16971 H   0  0  0  0  0  0
  -0.29749  -2.15035   1.43301 H   0  0  0  0  0  0
  -0.16675  -4.36518  -0.64726 H   0  0  0  0  0  0
  -1.02354  -4.39749   0.87796 H   0  0  0  0  0  0
   1.09547  -5.69635   0.92692 H   0  0  0  0  0  0
   1.04446  -4.44178   2.15107 H   0  0  0  0  0  0
   3.77256  -0.81931   0.09414 H   0  0  0  0  0  0
   3.75271  -2.11116  -1.09286 H   0  0  0  0  0  0
   3.65981  -5.70541   1.09172 H   0  0  0  0  0  0
   3.61073  -4.42977   2.29363 H   0  0  0  0  0  0
   5.08411  -4.42598  -0.38854 H   0  0  0  0  0  0
   5.78800  -4.43982   1.22084 H   0  0  0  0  0  0
   5.87427  -2.18076   0.11753 H   0  0  0  0  0  0
   1.95975  -3.97526  -1.45576 H   0  0  0  0  0  0
  1  2  1  0  0  0
  2  3  1  0  0  0
  3  4  1  0  0  0
  4  5  1  0  0  0
  1  6  1  0  0  0
  7  6  1  0  0  0
  6  5  1  0  0  0
  5  8  1  0  0  0
  8  9  1  0  0  0
  9 10  1  0  0  0
  7 10  1  0  0  0
  6 11  1  0  0  0
 10 12  1  0  0  0
  5 13  1  0  0  0
  1 14  1  0  0  0
  1 15  1  0  0  0
  2 16  1  0  0  0
  2 17  1  0  0  0
  3 18  1  0  0  0
  3 19  1  0  0  0
  4 20  1  0  0  0
  4 21  1  0  0  0
  7 22  1  0  0  0
  7 23  1  0  0  0
  8 24  1  0  0  0
  8 25  1  0  0  0
  9 26  1  0  0  0
  9 27  1  0  0  0
 10 28  1  0  0  0
 13 29  1  0  0  0
M  END
$$$$
