c:/jmol-dev/bobtest/cip/RS/_1R,2R_-2-__S_-chloro_fluoro_methyl_cyclohexan-1- ol.sdf
__Jmol-14_05291710533D 1   1.00000     0.00000     0
Jmol version 14.17.2  2017-05-27 15:31 EXTRACT: ({0:21})
 22 22  0  0  0  0              1 V2000
   1.66987  -3.49217  -0.21606 C   0  0  0  0  0  0
   2.39083  -2.48577   0.69023 C   0  0  0  0  0  0
   3.93882  -2.40296   0.65002 C   0  0  0  0  0  0
   4.67194  -3.60510   0.02846 C   0  0  0  0  0  0
   3.98965  -4.31657  -1.13213 C   0  0  0  0  0  0
   2.47635  -4.48637  -1.04521 C   0  0  0  0  0  0
   2.01582  -2.79550   2.03688 O   0  0  0  0  0  0
   4.46736  -1.05751   0.09301 C   0  0  0  0  0  0
   3.47309  -0.13727   0.00060 F   0  0  0  0  0  0
   5.71217  -0.37539   1.18429 Cl  0  0  0  0  0  0
   1.04492  -2.92106  -0.91219 H   0  0  0  0  0  0
   0.94624  -4.06820   0.37548 H   0  0  0  0  0  0
   1.93590  -1.51114   0.50266 H   0  0  0  0  0  0
   4.26154  -2.43150   1.69502 H   0  0  0  0  0  0
   4.86033  -4.34338   0.81479 H   0  0  0  0  0  0
   5.67440  -3.30531  -0.30313 H   0  0  0  0  0  0
   4.43018  -5.31505  -1.22034 H   0  0  0  0  0  0
   4.24818  -3.83108  -2.07674 H   0  0  0  0  0  0
   2.26241  -5.49386  -0.67634 H   0  0  0  0  0  0
   2.07868  -4.48828  -2.06542 H   0  0  0  0  0  0
   2.36176  -2.09340   2.61563 H   0  0  0  0  0  0
   4.91536  -1.15624  -0.90102 H   0  0  0  0  0  0
  1  2  1  0  0  0
  2  3  1  0  0  0
  3  4  1  0  0  0
  4  5  1  0  0  0
  5  6  1  0  0  0
  6  1  1  0  0  0
  2  7  1  0  0  0
  3  8  1  0  0  0
  9  8  1  0  0  0
  8 10  1  0  0  0
  1 11  1  0  0  0
  1 12  1  0  0  0
  2 13  1  0  0  0
  3 14  1  0  0  0
  4 15  1  0  0  0
  4 16  1  0  0  0
  5 17  1  0  0  0
  5 18  1  0  0  0
  6 19  1  0  0  0
  6 20  1  0  0  0
  7 21  1  0  0  0
  8 22  1  0  0  0
M  END
$$$$
