c:/jmol-dev/bobtest/cip/centres/ChEBI_3049.mol
__Jmol-14_05181719363D 1   1.00000     0.00000     0
Jmol version 14.15.5  2017-05-17 23:50 EXTRACT: ({0:56})
 57 59  0  0  0  0              1 V2000
   5.86369   0.98856  -2.43056 C   0  0  0  0  0  0
   7.88114   1.44515  -0.86322 C   0  0  0  0  0  0
   7.35636   0.21071  -0.09961 C   0  0  0  0  0  0
   5.98871  -0.34456  -0.53764 C   0  0  0  0  0  0
   5.14166   0.73481  -1.13080 N   0  3  0  0  0  0
   7.14318   1.79071  -2.17530 C   0  0  0  0  0  0
   6.06132  -1.30887  -1.70651 C   0  0  0  0  0  0
   6.16392  -0.42441  -2.94020 C   0  0  0  0  0  0
  10.27050   2.09821  -0.56313 C   0  0  0  0  0  0
   9.26920   1.24086  -1.16264 O   0  0  0  0  0  0
   5.45339  -0.79366   0.30880 H   0  0  0  0  0  0
   5.18480   1.52389  -3.10969 H   0  0  0  0  0  0
  10.55227   3.16964  -1.63305 C   0  0  0  0  0  0
  11.41862   1.17676  -0.07153 C   0  0  0  0  0  0
  11.61225   3.19301  -2.47651 C   0  0  0  0  0  0
  11.68221   4.13660  -3.57544 C   0  0  0  0  0  0
  10.65092   4.94960  -3.83595 C   0  0  0  0  0  0
   9.51547   4.96887  -2.94032 C   0  0  0  0  0  0
   9.50479   4.17454  -1.85894 C   0  0  0  0  0  0
  11.18707  -0.12227   0.24210 C   0  0  0  0  0  0
  12.24795  -1.03736   0.59217 C   0  0  0  0  0  0
  13.52225  -0.62526   0.58180 C   0  0  0  0  0  0
  13.80989   0.76637   0.31680 C   0  0  0  0  0  0
  12.81174   1.62835   0.05637 C   0  0  0  0  0  0
   4.73594   1.88645  -0.25199 C   0  0  0  0  0  0
   7.79290   2.30271  -0.19289 H   0  0  0  0  0  0
   9.36021  -3.49658  -0.64111 C   0  0  0  0  0  0
   9.43928  -2.97823  -2.34631 S   0  0  0  0  0  0
  10.73850  -3.44340  -2.77465 O   0  5  0  0  0  0
   8.29873  -3.65726  -2.93343 O   0  0  0  0  0  0
   9.27212  -1.54017  -2.25469 O   0  0  0  0  0  0
   8.08161  -0.60118  -0.10357 H   0  0  0  0  0  0
   7.28130   0.49501   0.95273 H   0  0  0  0  0  0
   4.25516   0.27428  -1.38713 H   0  0  0  0  0  0
   6.85962   2.85060  -2.13188 H   0  0  0  0  0  0
   7.80802   1.71687  -3.04066 H   0  0  0  0  0  0
   5.13630  -1.89813  -1.76173 H   0  0  0  0  0  0
   6.86870  -2.03082  -1.61094 H   0  0  0  0  0  0
   7.13914  -0.49782  -3.42566 H   0  0  0  0  0  0
   5.42151  -0.73684  -3.67856 H   0  0  0  0  0  0
   9.86921   2.59001   0.33593 H   0  0  0  0  0  0
  12.38624   2.43793  -2.44335 H   0  0  0  0  0  0
  12.56138   4.11615  -4.21536 H   0  0  0  0  0  0
  10.66438   5.62551  -4.68691 H   0  0  0  0  0  0
   8.70951   5.66489  -3.14719 H   0  0  0  0  0  0
   8.67813   4.23861  -1.15867 H   0  0  0  0  0  0
  10.20476  -0.55757   0.15242 H   0  0  0  0  0  0
  12.00342  -2.07765   0.78986 H   0  0  0  0  0  0
  14.33400  -1.31344   0.77711 H   0  0  0  0  0  0
  14.84540   1.08974   0.36008 H   0  0  0  0  0  0
  13.04224   2.67702  -0.10233 H   0  0  0  0  0  0
   5.57141   2.56224  -0.08379 H   0  0  0  0  0  0
   4.38019   1.47698   0.70122 H   0  0  0  0  0  0
   3.91891   2.41505  -0.75485 H   0  0  0  0  0  0
   8.45682  -3.08723  -0.18313 H   0  0  0  0  0  0
  10.24362  -3.12536  -0.11499 H   0  0  0  0  0  0
   9.33894  -4.58753  -0.60329 H   0  0  0  0  0  0
  1 12  1  0  0  0
  9 13  1  0  0  0
  4  5  1  0  0  0
  9 14  1  0  0  0
  5  1  1  0  0  0
 13 15  2  0  0  0
  1  6  1  0  0  0
 15 16  1  0  0  0
  6  2  1  0  0  0
 16 17  2  0  0  0
  4  7  1  0  0  0
 17 18  1  0  0  0
  1  8  1  0  0  0
 18 19  2  0  0  0
 19 13  1  0  0  0
  7  8  1  0  0  0
 14 20  2  0  0  0
 10  9  1  0  0  0
 20 21  1  0  0  0
  2  3  1  0  0  0
 21 22  2  0  0  0
  2 10  1  0  0  0
 22 23  1  0  0  0
  3  4  1  0  0  0
 23 24  2  0  0  0
 24 14  1  0  0  0
  4 11  1  0  0  0
  5 25  1  0  0  0
  2 26  1  0  0  0
 27 28  1  0  0  0
 28 29  1  0  0  0
 28 30  2  0  0  0
 28 31  2  0  0  0
  3 32  1  0  0  0
  3 33  1  0  0  0
  5 34  1  0  0  0
  6 35  1  0  0  0
  6 36  1  0  0  0
  7 37  1  0  0  0
  7 38  1  0  0  0
  8 39  1  0  0  0
  8 40  1  0  0  0
  9 41  1  0  0  0
 15 42  1  0  0  0
 16 43  1  0  0  0
 17 44  1  0  0  0
 18 45  1  0  0  0
 19 46  1  0  0  0
 20 47  1  0  0  0
 21 48  1  0  0  0
 22 49  1  0  0  0
 23 50  1  0  0  0
 24 51  1  0  0  0
 25 52  1  0  0  0
 25 53  1  0  0  0
 25 54  1  0  0  0
 27 55  1  0  0  0
 27 56  1  0  0  0
 27 57  1  0  0  0
M  END
