BrF3.MOL
  -ISIS-  08281017443D

  4  3  0  0  0  0  0  0  0  0999 V2000
    0.5961    0.3104    0.0755 Br  0  0  0  0  0  0  0  0  0  0  0  0
   -1.0170   -0.2846    0.1241 F   0  0  0  0  0  0  0  0  0  0  0  0
   -0.1477    1.9420   -0.1709 F   0  0  0  0  0  0  0  0  0  0  0  0
    1.1031   -1.4086    0.3289 F   0  0  0  0  0  0  0  0  0  0  0  0
  1  2  1  0  0  0  0
  1  3  1  0  0  0  0
  1  4  1  0  0  0  0
M  END
