Origami 3.5 11/25/2003 2:30:32 PM
  -ISIS-  08281018133D
|label for A = Br|label for X = F2|label for Y = F1|distance Br-F1 = 168.9|distance Br-F2 = 177.4|angle F1-Br-
  6  5  0  0  0  0  0  0  0  0999 V2000
    0.0000    0.0000    0.0000 Br  0  0  0  0  0  0  0  0  0  0  0  0
    1.2062    0.3146   -1.2623 F   0  0  0  0  0  0  0  0  0  0  0  0
   -0.0801    1.6824    0.1275 F   0  0  0  0  0  0  0  0  0  0  0  0
   -1.2887    0.1913   -1.2042 F   0  0  0  0  0  0  0  0  0  0  0  0
   -1.2215    0.0057    1.2866 F   0  0  0  0  0  0  0  0  0  0  0  0
    1.2734    0.1290    1.2285 F   0  0  0  0  0  0  0  0  0  0  0  0
  1  2  1  0  0  0  0
  1  3  1  0  0  0  0
  1  4  1  0  0  0  0
  1  5  1  0  0  0  0
  1  6  1  0  0  0  0
M  END
