CTPOCO
  -ISIS-  08281018153D

 78 89  0  0  0  0  0  0  0  0999 V2000
    0.0000    0.0000    0.0000 Co  0  0  0  0  0  0  0  0  0  0  0  0
    0.0000    0.0000    2.1497 Cl  0  0  0  0  0  0  0  0  0  0  0  0
    1.9115    0.5299   -0.0553 N   0  0  3  0  0  0  0  0  0  0  0  0
    2.4127    1.8047   -0.0514 C   0  0  0  0  0  0  0  0  0  0  0  0
    3.8792    1.8034    0.0097 C   0  0  0  0  0  0  0  0  0  0  0  0
    4.2147    0.4875    0.0631 C   0  0  0  0  0  0  0  0  0  0  0  0
    3.0207   -0.2807   -0.0233 C   0  0  0  0  0  0  0  0  0  0  0  0
    1.6651    2.9851   -0.0388 C   0  0  0  0  0  0  0  0  0  0  0  0
    2.4237    4.2996   -0.0621 C   0  0  3  0  0  0  0  0  0  0  0  0
    2.4730    5.0281    1.2437 C   0  0  0  0  0  0  0  0  0  0  0  0
    3.2233    6.2550    1.2311 C   0  0  0  0  0  0  0  0  0  0  0  0
    3.8149    6.6849   -0.1125 C   0  0  0  0  0  0  0  0  0  0  0  0
    3.7546    5.9565   -1.2175 C   0  0  0  0  0  0  0  0  0  0  0  0
    3.0371    4.7227   -1.2136 C   0  0  0  0  0  0  0  0  0  0  0  0
   -0.5299    1.9115   -0.0553 N   0  0  3  0  0  0  0  0  0  0  0  0
   -1.9115   -0.5299   -0.0553 N   0  0  3  0  0  0  0  0  0  0  0  0
    0.5299   -1.9115   -0.0553 N   0  0  3  0  0  0  0  0  0  0  0  0
    2.9851   -1.6651   -0.0388 C   0  0  0  0  0  0  0  0  0  0  0  0
    0.2807    3.0207   -0.0233 C   0  0  0  0  0  0  0  0  0  0  0  0
   -1.8047    2.4127   -0.0514 C   0  0  0  0  0  0  0  0  0  0  0  0
   -2.4127   -1.8047   -0.0514 C   0  0  0  0  0  0  0  0  0  0  0  0
   -3.0207    0.2807   -0.0233 C   0  0  0  0  0  0  0  0  0  0  0  0
    1.8047   -2.4127   -0.0514 C   0  0  0  0  0  0  0  0  0  0  0  0
   -0.2807   -3.0207   -0.0233 C   0  0  0  0  0  0  0  0  0  0  0  0
    4.2996   -2.4237   -0.0621 C   0  0  3  0  0  0  0  0  0  0  0  0
   -0.4875    4.2147    0.0631 C   0  0  0  0  0  0  0  0  0  0  0  0
   -1.8034    3.8792    0.0097 C   0  0  0  0  0  0  0  0  0  0  0  0
   -2.9851    1.6651   -0.0388 C   0  0  0  0  0  0  0  0  0  0  0  0
   -3.8792   -1.8034    0.0097 C   0  0  0  0  0  0  0  0  0  0  0  0
   -1.6651   -2.9851   -0.0388 C   0  0  0  0  0  0  0  0  0  0  0  0
   -4.2147   -0.4875    0.0631 C   0  0  0  0  0  0  0  0  0  0  0  0
    1.8034   -3.8792    0.0097 C   0  0  0  0  0  0  0  0  0  0  0  0
    0.4875   -4.2147    0.0631 C   0  0  0  0  0  0  0  0  0  0  0  0
    5.0281   -2.4730    1.2437 C   0  0  0  0  0  0  0  0  0  0  0  0
    4.7227   -3.0371   -1.2136 C   0  0  0  0  0  0  0  0  0  0  0  0
   -4.2996    2.4237   -0.0621 C   0  0  3  0  0  0  0  0  0  0  0  0
   -2.4237   -4.2996   -0.0621 C   0  0  3  0  0  0  0  0  0  0  0  0
    6.2550   -3.2233    1.2311 C   0  0  0  0  0  0  0  0  0  0  0  0
    5.9564   -3.7546   -1.2175 C   0  0  0  0  0  0  0  0  0  0  0  0
   -5.0281    2.4730    1.2437 C   0  0  0  0  0  0  0  0  0  0  0  0
   -4.7227    3.0371   -1.2136 C   0  0  0  0  0  0  0  0  0  0  0  0
   -2.4730   -5.0281    1.2437 C   0  0  0  0  0  0  0  0  0  0  0  0
   -3.0371   -4.7227   -1.2136 C   0  0  0  0  0  0  0  0  0  0  0  0
    6.6849   -3.8149   -0.1125 C   0  0  0  0  0  0  0  0  0  0  0  0
   -6.2550    3.2233    1.2311 C   0  0  0  0  0  0  0  0  0  0  0  0
   -5.9565    3.7546   -1.2175 C   0  0  0  0  0  0  0  0  0  0  0  0
   -3.2233   -6.2550    1.2311 C   0  0  0  0  0  0  0  0  0  0  0  0
   -3.7546   -5.9565   -1.2175 C   0  0  0  0  0  0  0  0  0  0  0  0
   -6.6849    3.8149   -0.1125 C   0  0  0  0  0  0  0  0  0  0  0  0
   -3.8149   -6.6849   -0.1125 C   0  0  0  0  0  0  0  0  0  0  0  0
    4.4931    2.5928    0.0116 H   0  0  0  0  0  0  0  0  0  0  0  0
    5.1416    0.1221    0.1485 H   0  0  0  0  0  0  0  0  0  0  0  0
    2.0173    4.6867    2.0657 H   0  0  0  0  0  0  0  0  0  0  0  0
    3.3519    6.8000    2.0596 H   0  0  0  0  0  0  0  0  0  0  0  0
    4.2759    7.5710   -0.1597 H   0  0  0  0  0  0  0  0  0  0  0  0
    4.2099    6.2699   -2.0509 H   0  0  0  0  0  0  0  0  0  0  0  0
    2.9820    4.1702   -2.0453 H   0  0  0  0  0  0  0  0  0  0  0  0
   -0.1221    5.1416    0.1485 H   0  0  0  0  0  0  0  0  0  0  0  0
   -2.5928    4.4931    0.0116 H   0  0  0  0  0  0  0  0  0  0  0  0
   -4.4931   -2.5928    0.0116 H   0  0  0  0  0  0  0  0  0  0  0  0
   -5.1416   -0.1221    0.1485 H   0  0  0  0  0  0  0  0  0  0  0  0
    2.5928   -4.4931    0.0116 H   0  0  0  0  0  0  0  0  0  0  0  0
    0.1221   -5.1416    0.1485 H   0  0  0  0  0  0  0  0  0  0  0  0
    4.6867   -2.0173    2.0657 H   0  0  0  0  0  0  0  0  0  0  0  0
    4.1702   -2.9819   -2.0453 H   0  0  0  0  0  0  0  0  0  0  0  0
    6.8000   -3.3519    2.0596 H   0  0  0  0  0  0  0  0  0  0  0  0
    6.2697   -4.2100   -2.0509 H   0  0  0  0  0  0  0  0  0  0  0  0
   -4.6867    2.0173    2.0657 H   0  0  0  0  0  0  0  0  0  0  0  0
   -4.1702    2.9820   -2.0453 H   0  0  0  0  0  0  0  0  0  0  0  0
   -2.0173   -4.6867    2.0657 H   0  0  0  0  0  0  0  0  0  0  0  0
   -2.9820   -4.1702   -2.0453 H   0  0  0  0  0  0  0  0  0  0  0  0
    7.5710   -4.2759   -0.1598 H   0  0  0  0  0  0  0  0  0  0  0  0
   -6.8000    3.3519    2.0596 H   0  0  0  0  0  0  0  0  0  0  0  0
   -6.2699    4.2099   -2.0509 H   0  0  0  0  0  0  0  0  0  0  0  0
   -3.3519   -6.8000    2.0596 H   0  0  0  0  0  0  0  0  0  0  0  0
   -4.2099   -6.2699   -2.0509 H   0  0  0  0  0  0  0  0  0  0  0  0
   -7.5710    4.2759   -0.1597 H   0  0  0  0  0  0  0  0  0  0  0  0
   -4.2759   -7.5710   -0.1597 H   0  0  0  0  0  0  0  0  0  0  0  0
  1  2  1  0  0  0  0
  1  3  1  0  0  0  0
  1 15  1  0  0  0  0
  1 16  1  0  0  0  0
  1 17  1  0  0  0  0
  3  4  1  0  0  0  0
  3  7  1  0  0  0  0
  4  5  1  0  0  0  0
  4  8  2  0  0  0  0
  5  6  2  0  0  0  0
  6  7  1  0  0  0  0
  7 18  2  0  0  0  0
  8  9  1  0  0  0  0
  8 19  1  0  0  0  0
  9 10  4  0  0  0  0
  9 14  4  0  0  0  0
 10 11  4  0  0  0  0
 11 12  4  0  0  0  0
 12 13  4  0  0  0  0
 13 14  4  0  0  0  0
 15 20  1  0  0  0  0
 15 19  2  0  0  0  0
 16 21  1  0  0  0  0
 16 22  1  0  0  0  0
 17 23  2  0  0  0  0
 17 24  1  0  0  0  0
 18 25  1  0  0  0  0
 18 23  1  0  0  0  0
 19 26  1  0  0  0  0
 20 27  1  0  0  0  0
 20 28  2  0  0  0  0
 21 29  2  0  0  0  0
 21 30  1  0  0  0  0
 22 31  2  0  0  0  0
 22 28  1  0  0  0  0
 23 32  1  0  0  0  0
 24 33  1  0  0  0  0
 24 30  2  0  0  0  0
 25 34  4  0  0  0  0
 25 35  4  0  0  0  0
 26 27  2  0  0  0  0
 28 36  1  0  0  0  0
 29 31  1  0  0  0  0
 30 37  1  0  0  0  0
 32 33  2  0  0  0  0
 34 38  4  0  0  0  0
 35 39  4  0  0  0  0
 36 40  4  0  0  0  0
 36 41  4  0  0  0  0
 37 42  4  0  0  0  0
 37 43  4  0  0  0  0
 38 44  4  0  0  0  0
 39 44  4  0  0  0  0
 40 45  4  0  0  0  0
 41 46  4  0  0  0  0
 42 47  4  0  0  0  0
 43 48  4  0  0  0  0
 45 49  4  0  0  0  0
 46 49  4  0  0  0  0
 47 50  4  0  0  0  0
 48 50  4  0  0  0  0
  5 51  1  0  0  0  0
  6 52  1  0  0  0  0
 10 53  1  0  0  0  0
 11 54  1  0  0  0  0
 12 55  1  0  0  0  0
 13 56  1  0  0  0  0
 14 57  1  0  0  0  0
 26 58  1  0  0  0  0
 27 59  1  0  0  0  0
 29 60  1  0  0  0  0
 31 61  1  0  0  0  0
 32 62  1  0  0  0  0
 33 63  1  0  0  0  0
 34 64  1  0  0  0  0
 35 65  1  0  0  0  0
 38 66  1  0  0  0  0
 39 67  1  0  0  0  0
 40 68  1  0  0  0  0
 41 69  1  0  0  0  0
 42 70  1  0  0  0  0
 43 71  1  0  0  0  0
 44 72  1  0  0  0  0
 45 73  1  0  0  0  0
 46 74  1  0  0  0  0
 47 75  1  0  0  0  0
 48 76  1  0  0  0  0
 49 77  1  0  0  0  0
 50 78  1  0  0  0  0
M  END
