Origami 3.5c 7/5/2004 1:17:29 PM
  -ISIS-  08281018183D

  5  4  0  0  0  0  0  0  0  0999 V2000
    2.8959    0.4542    2.2515 F   0  0  0  0  0  0  0  0  0  0  0  0
    5.0666    1.9386   -0.7772 F   0  0  0  0  0  0  0  0  0  0  0  0
    5.6727    0.8883    1.7937 F   0  0  0  0  0  0  0  0  0  0  0  0
    2.2898    1.5045   -0.3194 F   0  0  0  0  0  0  0  0  0  0  0  0
    3.9813    1.1964    0.7371 I   0  0  0  0  0  0  0  0  0  0  0  0
  1  5  1  0  0  0  0
  2  5  1  0  0  0  0
  3  5  1  0  0  0  0
  4  5  1  0  0  0  0
M  END
