Origami 3.5 11/25/2003 2:30:38 PM
  -ISIS-  08281018033D
unitcell  570,562,1049,90,90,90
  5  4  0  0  0  0  0  0  0  0999 V2000
    1.0522    0.3434    1.0552 I   0  0  0  0  0  0  0  0  0  0  0  0
    1.8291    1.6966    0.3462 O   0  0  0  0  0  0  0  0  0  0  0  0
    2.2269    0.0045    2.4263 F   0  0  0  0  0  0  0  0  0  0  0  0
    0.2941    1.4420    2.4189 F   0  0  0  0  0  0  0  0  0  0  0  0
    2.0890   -0.8756    0.0451 F   0  0  0  0  0  0  0  0  0  0  0  0
  1  2  1  0  0  0  0
  1  3  1  0  0  0  0
  1  4  1  0  0  0  0
  1  5  1  0  0  0  0
M  END
