c:/jmol-dev/bobtest/cip/RSEZ/test2.mol
__Jmol-14_04271715543D 1   1.00000     0.00000     0
Jmol version 14.15.1  2017-04-27 14:00 EXTRACT: ({0:4 6:10 12:16 18:21 25:28 32:35 39:44 50:55})
 39 39  0  0  0  0              1 V2000
   1.34637  -0.59445   0.64171 C   0  0  0  0  0  0
   1.25125  -0.56765   1.73673 H   0  0  0  0  0  0
   2.74440  -1.22176   0.43664 C   0  0  0  0  0  0
   0.16000  -1.43108   0.13820 C   0  0  0  0  0  0
   0.19292  -2.51136  -0.67785 C   0  0  0  0  0  0
  -1.17679  -0.86543   0.63105 C   0  0  0  0  0  0
  -1.11132  -0.82584   1.72363 H   0  0  0  0  0  0
  -2.40622  -1.76895   0.39300 C   0  0  0  0  0  0
  -1.31475   0.58915   0.15757 C   0  0  0  0  0  0
  -2.26907   1.11013  -0.66019 C   0  0  0  0  0  0
  -0.15352   1.46165   0.64675 C   0  0  0  0  0  0
  -0.13809   1.37175   1.74259 H   0  0  0  0  0  0
  -0.31483   2.98325   0.42683 C   0  0  0  0  0  0
   1.17048   0.84580   0.15587 C   0  0  0  0  0  0
   2.09680   1.41415  -0.66183 C   0  0  0  0  0  0
   3.10598  -1.15843  -0.59088 H   0  0  0  0  0  0
   3.48995  -0.70962   1.05698 H   0  0  0  0  0  0
   2.77115  -2.27676   0.71721 H   0  0  0  0  0  0
   1.29447  -3.10358  -1.49323 C   0  0  0  0  0  0
  -2.28795  -2.73291   0.89112 H   0  0  0  0  0  0
  -3.31627  -1.31902   0.80327 H   0  0  0  0  0  0
  -2.58563  -1.97418  -0.66626 H   0  0  0  0  0  0
  -3.27670   0.43312  -1.52399 C   0  0  0  0  0  0
  -1.13996   3.37711   1.03201 H   0  0  0  0  0  0
   0.58111   3.54126   0.70947 H   0  0  0  0  0  0
  -0.53810   3.25380  -0.60832 H   0  0  0  0  0  0
   2.05372   2.65533  -1.48750 C   0  0  0  0  0  0
   2.64618   2.49491  -2.39515 H   0  0  0  0  0  0
   2.48549   3.50573  -0.95700 H   0  0  0  0  0  0
   1.05035   2.89412  -1.84373 H   0  0  0  0  0  0
   0.86539  -3.52947  -2.40326 H   0  0  0  0  0  0
   1.80115  -3.90684  -0.95643 H   0  0  0  0  0  0
   2.01411  -2.35967  -1.83880 H   0  0  0  0  0  0
  -2.28187   2.17437  -0.84211 H   0  0  0  0  0  0
  -4.01467  -0.14629  -0.96509 H   0  0  0  0  0  0
  -2.76473  -0.19375  -2.26351 H   0  0  0  0  0  0
  -3.83333   1.18225  -2.08835 H   0  0  0  0  0  0
  -0.72818  -3.04696  -0.87092 H   0  0  0  0  0  0
   3.01874   0.88478  -0.85144 H   0  0  0  0  0  0
  1  2  1  0  0  0
  1  3  1  0  0  0
  1  4  1  0  0  0
  4  5  2  0  0  0
  4  6  1  0  0  0
  6  7  1  0  0  0
  6  8  1  0  0  0
  6  9  1  0  0  0
  9 10  2  0  0  0
  9 11  1  0  0  0
 11 12  1  0  0  0
 11 13  1  0  0  0
 11 14  1  0  0  0
  1 14  1  0  0  0
 14 15  2  0  0  0
  3 16  1  0  0  0
  3 17  1  0  0  0
  3 18  1  0  0  0
  5 19  1  0  0  0
  8 20  1  0  0  0
  8 21  1  0  0  0
  8 22  1  0  0  0
 10 23  1  0  0  0
 13 24  1  0  0  0
 13 25  1  0  0  0
 13 26  1  0  0  0
 15 27  1  0  0  0
 28 27  1  0  0  0
 29 27  1  0  0  0
 30 27  1  0  0  0
 31 19  1  0  0  0
 32 19  1  0  0  0
 33 19  1  0  0  0
 34 10  1  0  0  0
 35 23  1  0  0  0
 36 23  1  0  0  0
 37 23  1  0  0  0
 38  5  1  0  0  0
 39 15  1  0  0  0
M  END
