c:/jmol-dev/bobtest/cip/centres/ChEBI_66261.mol
__Jmol-14_05211707573D 1   1.00000     0.00000     0
Jmol version 14.16.1  2017-05-19 12:09 EXTRACT: ({0:67})
 68 72  0  0  0  0              1 V2000
  -0.91209   6.05808  -1.47093 C   0  0  0  0  0  0
  -0.21385   7.21273  -1.86849 O   0  0  0  0  0  0
  -0.13594   7.05049  -3.30399 C   0  0  0  0  0  0
   0.44810   5.64554  -3.44420 C   0  0  0  0  0  0
  -0.02267   4.89595  -2.15462 C   0  0  0  0  0  0
  -0.97718   3.70295  -2.05574 C   0  0  0  0  0  0
   0.24742   5.09496  -4.82778 C   0  0  0  0  0  0
  -1.02351   5.08523  -5.27300 C   0  0  0  0  0  0
  -2.28140   3.86805  -2.34917 C   0  0  0  0  0  0
  -2.73769   5.10729  -3.08775 C   0  0  0  0  0  0
  -2.16445   5.70217  -4.44412 C   0  0  0  0  0  0
  -1.59101   7.08573  -3.98816 C   0  0  0  0  0  0
  -2.48040   7.43057  -2.96646 O   0  0  0  0  0  0
  -2.47175   6.26764  -2.12394 C   0  0  0  0  0  0
  -0.61059   2.71224  -1.16188 O   0  0  0  0  0  0
  -3.31191   3.21769  -1.39997 C   0  0  0  0  0  0
  -3.10288   3.48436   0.07845 C   0  0  0  0  0  0
  -4.36515   2.74170  -1.80159 O   0  0  0  0  0  0
  -2.55759   2.59340   0.91591 C   0  0  0  0  0  0
  -1.90097   3.04523   2.13067 C   0  0  0  0  0  0
  -0.79926   2.43383   2.58516 C   0  0  0  0  0  0
   0.09436   2.96064   3.66302 C   0  0  0  0  0  0
   1.53662   5.02160  -5.67890 C   0  0  0  0  0  0
  -1.29800   4.98202  -6.61881 O   0  0  0  0  0  0
   2.63663   5.19631  -5.16819 O   0  0  0  0  0  0
   1.46892   4.98797  -7.16698 C   0  0  0  0  0  0
   0.90355   3.97556  -7.84958 C   0  0  0  0  0  0
   0.54501   4.03676  -9.24866 C   0  0  0  0  0  0
   1.26717   4.56613 -10.25139 C   0  0  0  0  0  0
   0.76550   4.64442 -11.65672 C   0  0  0  0  0  0
  -0.92053   5.92170  -0.05768 O   0  0  0  0  0  0
   1.36530   4.36436  -1.57095 C   0  0  0  0  0  0
   0.81220   8.15059  -3.80043 C   0  0  0  0  0  0
   1.51231   5.82967  -3.34579 H   0  0  0  0  0  0
  -1.68726   8.04274  -5.02947 O   0  0  0  0  0  0
  -3.69924   6.54944  -1.22483 C   0  0  0  0  0  0
  -3.42048   5.89041  -5.35638 C   0  0  0  0  0  0
  -3.82216   4.97963  -3.21517 H   0  0  0  0  0  0
  -0.37666   3.15896  -0.31307 H   0  0  0  0  0  0
  -3.18012   4.51110   0.40474 H   0  0  0  0  0  0
  -2.38379   1.57256   0.57897 H   0  0  0  0  0  0
  -2.22135   3.98516   2.58098 H   0  0  0  0  0  0
  -0.45019   1.52183   2.10578 H   0  0  0  0  0  0
   0.15718   2.24683   4.49035 H   0  0  0  0  0  0
  -0.24056   3.92250   4.05596 H   0  0  0  0  0  0
   1.10411   3.09935   3.26247 H   0  0  0  0  0  0
  -1.30657   5.90065  -6.97122 H   0  0  0  0  0  0
   1.87569   5.86228  -7.66405 H   0  0  0  0  0  0
   0.50374   3.12282  -7.30435 H   0  0  0  0  0  0
  -0.42797   3.61114  -9.47063 H   0  0  0  0  0  0
   2.25074   4.97627 -10.06266 H   0  0  0  0  0  0
   0.82176   5.67345 -12.01755 H   0  0  0  0  0  0
  -0.27764   4.31671 -11.74779 H   0  0  0  0  0  0
   1.37561   4.01574 -12.31363 H   0  0  0  0  0  0
  -1.59992   6.53222   0.27541 H   0  0  0  0  0  0
   1.58690   3.38407  -2.00980 H   0  0  0  0  0  0
   1.43019   4.22305  -0.49393 H   0  0  0  0  0  0
   2.25239   4.93055  -1.86272 H   0  0  0  0  0  0
   0.96161   8.11759  -4.88130 H   0  0  0  0  0  0
   1.79033   8.07112  -3.31720 H   0  0  0  0  0  0
   0.42943   9.13960  -3.52249 H   0  0  0  0  0  0
  -1.60260   8.90704  -4.58600 H   0  0  0  0  0  0
  -4.21349   5.66444  -0.86290 H   0  0  0  0  0  0
  -4.46820   7.08309  -1.79745 H   0  0  0  0  0  0
  -3.46007   7.19997  -0.38376 H   0  0  0  0  0  0
  -3.23070   6.48374  -6.25227 H   0  0  0  0  0  0
  -4.23717   6.40231  -4.83426 H   0  0  0  0  0  0
  -3.81305   4.91968  -5.68821 H   0  0  0  0  0  0
  5  1  1  0  0  0
  1  2  1  0  0  0
  2  3  1  0  0  0
  3  4  1  0  0  0
  4  5  1  0  0  0
  5  6  1  0  0  0
  4  7  1  0  0  0
  7  8  2  0  0  0
  8 11  1  0  0  0
 10  9  1  0  0  0
  9  6  2  0  0  0
 10 11  1  0  0  0
 11 12  1  0  0  0
 12 13  1  0  0  0
 13 14  1  0  0  0
 14 10  1  0  0  0
  1 14  1  0  0  0
  3 12  1  0  0  0
  6 15  1  0  0  0
  9 16  1  0  0  0
 16 17  1  0  0  0
 16 18  2  0  0  0
 17 19  2  0  0  0
 19 20  1  0  0  0
 20 21  2  0  0  0
 21 22  1  0  0  0
  7 23  1  0  0  0
  8 24  1  0  0  0
 23 25  2  0  0  0
 23 26  1  0  0  0
 26 27  2  0  0  0
 27 28  1  0  0  0
 28 29  2  0  0  0
 29 30  1  0  0  0
  1 31  1  0  0  0
  5 32  1  0  0  0
  3 33  1  0  0  0
  4 34  1  0  0  0
 12 35  1  0  0  0
 14 36  1  0  0  0
 11 37  1  0  0  0
 10 38  1  0  0  0
 15 39  1  0  0  0
 17 40  1  0  0  0
 19 41  1  0  0  0
 20 42  1  0  0  0
 21 43  1  0  0  0
 22 44  1  0  0  0
 22 45  1  0  0  0
 22 46  1  0  0  0
 24 47  1  0  0  0
 26 48  1  0  0  0
 27 49  1  0  0  0
 28 50  1  0  0  0
 29 51  1  0  0  0
 30 52  1  0  0  0
 30 53  1  0  0  0
 30 54  1  0  0  0
 31 55  1  0  0  0
 32 56  1  0  0  0
 32 57  1  0  0  0
 32 58  1  0  0  0
 33 59  1  0  0  0
 33 60  1  0  0  0
 33 61  1  0  0  0
 35 62  1  0  0  0
 36 63  1  0  0  0
 36 64  1  0  0  0
 36 65  1  0  0  0
 37 66  1  0  0  0
 37 67  1  0  0  0
 37 68  1  0  0  0
M  END
