c:/jmol-dev/bobtest/cip/centres/CHEBI_3353.xml
__Jmol-14_05181719443D 1   1.00000     0.00000     0
Jmol version 14.15.5  2017-05-17 23:50 EXTRACT: ({0:77})
 78 81  0  0  0  0              1 V2000
  13.27165  -9.92947  -9.88404 H   0  0  0  0  0  0
  13.25903  -9.02504 -11.41962 H   0  0  0  0  0  0
  11.32304  -8.70599  -9.40610 H   0  0  0  0  0  0
  11.69084  -7.51151 -10.62180 H   0  0  0  0  0  0
  12.32123  -6.11695  -8.90061 H   0  0  0  0  0  0
  12.41563  -7.45965  -7.73527 H   0  0  0  0  0  0
  16.13969  -9.10051 -10.95144 H   0  0  0  0  0  0
  14.89102  -5.73092  -7.57187 H   0  0  0  0  0  0
  17.28056  -6.18877  -7.99428 H   0  0  0  0  0  0
  25.84094  -8.44240 -11.90362 H   0  0  0  0  0  0
  25.59617 -10.13803 -11.55653 H   0  0  0  0  0  0
  24.02973  -8.81532 -13.28392 H   0  0  0  0  0  0
  23.30323  -9.93010 -12.12957 H   0  0  0  0  0  0
  25.50334 -13.23587  -6.26784 H   0  0  0  0  0  0
  26.51333 -11.72978  -6.18633 H   0  0  0  0  0  0
  26.46598 -12.67198  -7.67465 H   0  0  0  0  0  0
  23.33634 -10.42149  -8.45070 H   0  0  0  0  0  0
  22.64065  -9.59349  -7.00354 H   0  0  0  0  0  0
  23.71165 -11.02176  -5.67249 H   0  0  0  0  0  0
  23.09208 -12.47279  -6.53159 H   0  0  0  0  0  0
  25.54862  -8.71268  -9.34467 H   0  0  0  0  0  0
  24.13714  -9.70211  -9.60089 H   0  0  0  0  0  0
  22.95080  -6.97817 -12.12642 H   0  0  0  0  0  0
  22.18717  -8.25293 -11.34826 H   0  0  0  0  0  0
  20.35780  -9.45503  -7.27473 H   0  0  0  0  0  0
  19.66165 -10.14568  -8.70397 H   0  0  0  0  0  0
  28.67070  -6.18120 -11.34957 H   0  0  0  0  0  0
  29.17643  -7.12266  -9.99231 H   0  0  0  0  0  0
  26.88802  -3.84466  -9.90708 H   0  0  0  0  0  0
  26.50377  -4.40904  -8.29774 H   0  0  0  0  0  0
  27.49948  -6.49691  -8.61410 H   0  0  0  0  0  0
  29.94836  -4.31836 -10.73196 H   0  0  0  0  0  0
  30.92900  -5.60558 -10.09163 H   0  0  0  0  0  0
  28.61431  -2.76254  -8.98878 H   0  0  0  0  0  0
  28.30998  -3.48048  -7.43872 H   0  0  0  0  0  0
  32.76859  -3.22869  -8.06278 H   0  0  0  0  0  0
  29.79706  -5.32802  -7.85706 H   0  0  0  0  0  0
  26.52111  -7.24757 -10.81914 H   0  0  0  0  0  0
  22.75763  -7.56412  -8.11876 H   0  0  0  0  0  0
  22.08993  -6.45511  -9.23123 H   0  0  0  0  0  0
  21.02104  -8.86819 -10.20481 H   0  0  0  0  0  0
  13.30586  -8.92870 -10.32534 C   0  0  0  0  0  0
  12.13510  -8.08469  -9.80459 C   0  0  0  0  0  0
  12.69346  -7.13226  -8.73764 C   0  0  0  0  0  0
  14.52036  -8.17588  -9.86129 C   0  0  0  0  0  0
  14.17868  -7.22089  -8.94576 C   0  0  0  0  0  0
  15.89297  -8.38420 -10.17924 C   0  0  0  0  0  0
  15.16840  -6.48070  -8.29724 C   0  0  0  0  0  0
  16.53454  -6.73605  -8.55415 C   0  0  0  0  0  0
  25.14394  -9.15195 -11.45027 C   0  0  0  0  0  0
  23.87414  -9.00168 -12.22233 C   0  0  0  0  0  0
  25.86660 -12.35740  -6.80995 C   0  0  0  0  0  0
  22.73423 -10.52758  -7.55060 C   0  0  0  0  0  0
  23.54325 -11.48986  -6.65666 C   0  0  0  0  0  0
  24.80586 -11.58641  -7.35272 O   0  0  0  0  0  0
  21.46732 -10.87445  -8.12999 O   0  0  0  0  0  0
  24.68415  -8.85163 -10.00895 C   0  0  0  0  0  0
  23.16803  -7.85283 -11.52212 C   0  0  0  0  0  0
  20.58949  -9.71775  -8.29763 C   0  0  0  0  0  0
  28.81278  -6.12224 -10.26905 C   0  0  0  0  0  0
  27.27297  -4.43727  -9.06879 C   0  0  0  0  0  0
  30.86062  -2.75840  -7.16379 O   0  0  0  0  0  0
  27.44403  -5.89414  -9.52374 C   0  0  0  0  0  0
  29.95302  -5.10850  -9.97550 C   0  0  0  0  0  0
  28.50651  -3.72866  -8.49429 C   0  0  0  0  0  0
  32.17991  -3.82587  -8.57326 O   0  0  0  0  0  0
  19.60777  -6.26799  -9.24190 O   0  0  0  0  0  0
  24.49973  -5.35213  -9.29320 O   0  0  0  0  0  0
  29.82761  -4.50128  -8.56578 C   0  0  0  0  0  0
  16.92938  -7.69410  -9.49097 C   0  0  0  0  0  0
  18.32170  -8.10414  -9.64089 O   0  0  0  0  0  0
  30.96380  -3.58901  -8.05296 C   0  0  0  0  0  0
  26.25393  -6.45837 -10.27164 N   0  0  0  0  0  0
  22.39528  -7.50193  -9.14471 C   0  0  0  0  0  0
  20.91390  -8.42113  -9.21222 C   0  0  0  0  0  0
  23.77673  -7.61479 -10.13247 C   0  0  0  0  0  0
  19.56012  -7.47699  -9.40591 C   0  0  0  0  0  0
  24.86982  -6.35005  -9.87564 C   0  0  0  0  0  0
 77 75  1  0  0  0
 76 78  1  0  0  0
 75 74  1  0  0  0
 74 76  1  0  0  0
 73 78  1  0  0  0
 69 72  1  0  0  0
 71 77  1  0  0  0
 70 71  1  0  0  0
 69 64  1  0  0  0
 68 78  2  0  0  0
 67 77  2  0  0  0
 66 72  1  0  0  0
 65 61  1  0  0  0
 64 60  1  0  0  0
 63 73  1  0  0  0
 62 72  2  0  0  0
 61 63  1  0  0  0
 60 63  1  0  0  0
 75 59  1  0  0  0
 58 76  1  0  0  0
 57 76  1  0  0  0
 56 59  1  0  0  0
 55 54  1  0  0  0
 54 53  1  0  0  0
 53 56  1  0  0  0
 52 55  1  0  0  0
 51 58  1  0  0  0
 50 57  1  0  0  0
 51 50  1  0  0  0
 69 65  1  0  0  0
 70 49  1  0  0  0
 48 49  2  0  0  0
 47 70  2  0  0  0
 46 48  1  0  0  0
 45 47  1  0  0  0
 45 46  2  0  0  0
 44 46  1  0  0  0
 43 44  1  0  0  0
 42 45  1  0  0  0
 42 43  1  0  0  0
 75 41  1  0  0  0
 74 40  1  0  0  0
 74 39  1  0  0  0
 73 38  1  0  0  0
 69 37  1  0  0  0
 66 36  1  0  0  0
 65 35  1  0  0  0
 65 34  1  0  0  0
 64 33  1  0  0  0
 64 32  1  0  0  0
 63 31  1  0  0  0
 61 30  1  0  0  0
 61 29  1  0  0  0
 60 28  1  0  0  0
 60 27  1  0  0  0
 59 26  1  0  0  0
 59 25  1  0  0  0
 58 24  1  0  0  0
 58 23  1  0  0  0
 57 22  1  0  0  0
 57 21  1  0  0  0
 54 20  1  0  0  0
 54 19  1  0  0  0
 53 18  1  0  0  0
 53 17  1  0  0  0
 52 16  1  0  0  0
 52 15  1  0  0  0
 52 14  1  0  0  0
 51 13  1  0  0  0
 51 12  1  0  0  0
 50 11  1  0  0  0
 50 10  1  0  0  0
 49  9  1  0  0  0
 48  8  1  0  0  0
 47  7  1  0  0  0
 44  6  1  0  0  0
 44  5  1  0  0  0
 43  4  1  0  0  0
 43  3  1  0  0  0
 42  2  1  0  0  0
 42  1  1  0  0  0
M  END
