c:/jmol-dev/bobtest/cip/centres/ChEBI_2955.mol
__Jmol-14_05181719313D 1   1.00000     0.00000     0
Jmol version 14.15.5  2017-05-17 23:50 EXTRACT: ({0:88 90:95 98:123 125:127})
124126  0  0  0  0              1 V2000
  -3.81671   4.20976  -0.42810 N   0  0  0  0  0  0
  -2.41304   4.42093   0.09051 C   0  0  0  0  0  0
  -4.65445   3.08217   0.10797 C   0  0  0  0  0  0
  -1.19912   4.07525  -0.77783 C   0  0  0  0  0  0
  -1.35950   2.67780  -1.37985 C   0  0  0  0  0  0
  -0.25972   1.64586  -1.10850 C   0  0  0  0  0  0
  -0.71783   0.20964  -0.43427 C   0  0  0  0  0  0
  -1.62571  -0.90460  -1.24888 C   0  0  0  0  0  0
  -1.80764  -2.41090  -0.65196 C   0  0  0  0  0  0
  -2.74297  -2.65783   0.53650 C   0  0  0  0  0  0
  -4.18577  -2.43803   0.07820 C   0  0  0  0  0  0
  -4.34058  -1.16000  -0.36022 O   0  0  0  0  0  0
  -5.57623  -0.75662  -0.94951 C   0  0  0  0  0  0
  -5.66468   0.83356  -0.99124 C   0  0  0  0  0  0
  -4.39843   1.66039  -0.55883 C   0  0  0  0  0  0
  -4.07373   4.36103  -1.87994 C   0  0  0  0  0  0
  -4.60488   2.98734   1.65257 C   0  0  0  0  0  0
  -3.42436   1.02556   0.26049 O   0  0  0  0  0  0
  -6.70927   1.17282  -0.07633 O   0  0  0  0  0  0
  -2.39165  -1.94645   1.82910 C   0  0  0  0  0  0
   0.59382   2.19201  -0.08085 O   0  0  0  0  0  0
  -0.81116   5.07531  -1.88932 C   0  0  0  0  0  0
   0.46659   1.70534  -2.50782 C   0  0  0  0  0  0
  -6.05040   1.38543  -2.38734 C   0  0  0  0  0  0
  -5.88616  -1.54219  -2.25638 C   0  0  0  0  0  0
  -2.40470  -3.36673  -1.59346 O   0  0  0  0  0  0
   0.47465  -0.30060   0.28562 O   0  0  0  0  0  0
  -5.05942  -3.27931   0.09105 O   0  0  0  0  0  0
  -7.37002  -1.90109  -2.24582 C   0  0  0  0  0  0
  -1.63483  -4.39707  -2.19320 C   0  0  0  0  0  0
   2.97424  -0.49939  -0.52096 C   0  0  0  0  0  0
   1.43304  -0.66130  -0.68087 C   0  0  0  0  0  0
   0.92024  -1.81598  -1.25023 O   0  0  0  0  0  0
   1.71915  -2.93155  -1.09228 C   0  0  0  0  0  0
   2.88442  -2.64975  -1.96919 C   0  0  0  0  0  0
   3.74635  -1.52332  -1.42841 C   0  0  0  0  0  0
  -0.61886  -5.13876  -1.33326 C   0  0  0  0  0  0
  -2.46707  -5.43890  -2.71278 O   0  0  0  0  0  0
  -1.81303  -6.55892  -3.40201 C   0  0  0  0  0  0
  -0.39102  -7.01752  -2.87903 C   0  0  0  0  0  0
   0.37837  -5.82092  -2.30486 C   0  0  0  0  0  0
   3.40410   0.80484  -1.00510 O   0  0  0  0  0  0
  -1.79005  -6.25577  -4.90023 C   0  0  0  0  0  0
   0.88825  -5.00446  -3.56450 C   0  0  0  0  0  0
   1.93248  -3.41254   0.35161 C   0  0  0  0  0  0
   4.98799  -2.01403  -0.77462 N   0  0  0  0  0  0
   1.52311  -6.17163  -1.44837 O   0  0  0  0  0  0
  -0.51416  -8.08212  -1.91391 O   0  0  0  0  0  0
   2.76345  -6.50750  -2.06805 C   0  0  0  0  0  0
   5.87491  -0.86655  -0.53288 C   0  0  0  0  0  0
   5.68106  -3.02274  -1.61621 C   0  0  0  0  0  0
  -1.46751  -0.91952  -2.77581 C   0  0  0  0  0  0
  -2.28400   3.86778   1.02633 H   0  0  0  0  0  0
  -2.31915   5.46010   0.40239 H   0  0  0  0  0  0
  -5.67725   3.38418  -0.12472 H   0  0  0  0  0  0
  -0.34997   4.13826  -0.09436 H   0  0  0  0  0  0
  -1.56469   2.80539  -2.43356 H   0  0  0  0  0  0
  -2.26232   2.20299  -1.12507 H   0  0  0  0  0  0
  -1.32056   0.46857   0.43092 H   0  0  0  0  0  0
  -2.59245  -0.44450  -1.23332 H   0  0  0  0  0  0
  -2.70760  -3.71738   0.75942 H   0  0  0  0  0  0
  -6.31689  -1.08278  -0.21329 H   0  0  0  0  0  0
  -3.89189   1.73739  -1.51732 H   0  0  0  0  0  0
  -5.02258   4.88602  -2.02249 H   0  0  0  0  0  0
  -3.33922   4.85718  -2.48137 H   0  0  0  0  0  0
  -4.16664   3.39351  -2.35561 H   0  0  0  0  0  0
  -3.64963   2.62407   2.04789 H   0  0  0  0  0  0
  -5.36739   2.31385   2.01918 H   0  0  0  0  0  0
  -4.78833   3.96356   2.10958 H   0  0  0  0  0  0
  -3.86687   0.51419   0.94221 H   0  0  0  0  0  0
  -6.48665   0.77309   0.77309 H   0  0  0  0  0  0
  -3.05242  -2.29794   2.63838 H   0  0  0  0  0  0
  -2.49825  -0.86935   1.77287 H   0  0  0  0  0  0
  -1.35158  -2.18285   2.12305 H   0  0  0  0  0  0
   0.13301   2.02626   0.77872 H   0  0  0  0  0  0
  -1.54130   5.16933  -2.69125 H   0  0  0  0  0  0
   0.10432   4.76233  -2.38287 H   0  0  0  0  0  0
  -0.64956   6.07691  -1.48195 H   0  0  0  0  0  0
   1.01667   0.84505  -2.87903 H   0  0  0  0  0  0
   1.17666   2.54232  -2.51146 H   0  0  0  0  0  0
  -0.21318   1.85444  -3.33918 H   0  0  0  0  0  0
  -6.24550   2.45651  -2.35910 H   0  0  0  0  0  0
  -6.96464   0.93949  -2.77902 H   0  0  0  0  0  0
  -5.25231   1.22230  -3.12821 H   0  0  0  0  0  0
  -5.30307  -2.45187  -2.34153 H   0  0  0  0  0  0
  -5.64916  -0.97861  -3.16515 H   0  0  0  0  0  0
  -8.00173  -1.03075  -2.13910 H   0  0  0  0  0  0
  -7.58697  -2.57596  -1.40436 H   0  0  0  0  0  0
  -7.65705  -2.43472  -3.16057 H   0  0  0  0  0  0
   3.23993  -0.55412   0.53008 H   0  0  0  0  0  0
   1.31753   0.03766  -1.44391 H   0  0  0  0  0  0
   1.12336  -3.63927  -1.60013 H   0  0  0  0  0  0
   2.50886  -2.32161  -2.94787 H   0  0  0  0  0  0
   3.39977  -3.58673  -2.17345 H   0  0  0  0  0  0
   4.06277  -0.99043  -2.33920 H   0  0  0  0  0  0
  -2.49278  -7.40356  -3.27135 H   0  0  0  0  0  0
   0.17804  -7.48161  -3.68698 H   0  0  0  0  0  0
   2.81447   1.49825  -0.65069 H   0  0  0  0  0  0
  -1.28158  -7.06629  -5.45256 H   0  0  0  0  0  0
  -1.32078  -5.31697  -5.14900 H   0  0  0  0  0  0
  -2.81563  -6.18691  -5.27409 H   0  0  0  0  0  0
   1.68863  -4.29177  -3.35843 H   0  0  0  0  0  0
   1.34621  -5.68079  -4.29104 H   0  0  0  0  0  0
   0.15901  -4.44478  -4.12356 H   0  0  0  0  0  0
   2.67948  -2.83131   0.88753 H   0  0  0  0  0  0
   2.27576  -4.45598   0.34504 H   0  0  0  0  0  0
   1.01617  -3.35895   0.93806 H   0  0  0  0  0  0
  -1.22058  -7.86849  -1.28447 H   0  0  0  0  0  0
   3.12095  -5.74891  -2.76991 H   0  0  0  0  0  0
   2.68441  -7.46922  -2.58227 H   0  0  0  0  0  0
   3.52796  -6.57356  -1.28851 H   0  0  0  0  0  0
   6.03911  -0.26651  -1.44319 H   0  0  0  0  0  0
   6.84989  -1.18987  -0.16550 H   0  0  0  0  0  0
   5.47943  -0.20415   0.24480 H   0  0  0  0  0  0
   6.71115  -3.16906  -1.28649 H   0  0  0  0  0  0
   5.69479  -2.74138  -2.67180 H   0  0  0  0  0  0
   5.21383  -4.00387  -1.51724 H   0  0  0  0  0  0
  -2.25540  -1.52934  -3.23333 H   0  0  0  0  0  0
  -0.51037  -1.32262  -3.12272 H   0  0  0  0  0  0
  -1.60090   0.06741  -3.19200 H   0  0  0  0  0  0
  -0.84937  -2.76942  -0.30915 H   0  0  0  0  0  0
  -1.17956  -3.86631  -3.02151 H   0  0  0  0  0  0
  -1.13308  -5.87706  -0.71391 H   0  0  0  0  0  0
  -0.15860  -4.55474  -0.55081 H   0  0  0  0  0  0
  1  2  1  0  0  0
  1  3  1  0  0  0
  2  4  1  0  0  0
  4  5  1  0  0  0
  5  6  1  0  0  0
  6  7  1  0  0  0
  7  8  1  0  0  0
  8  9  1  0  0  0
  9 10  1  0  0  0
 10 11  1  0  0  0
 11 12  1  0  0  0
 12 13  1  0  0  0
 13 14  1  0  0  0
 14 15  1  0  0  0
 15  3  1  0  0  0
  1 16  1  0  0  0
  3 17  1  0  0  0
 15 18  1  0  0  0
 14 19  1  0  0  0
 10 20  1  0  0  0
  6 21  1  0  0  0
  4 22  1  0  0  0
  6 23  1  0  0  0
 14 24  1  0  0  0
 13 25  1  0  0  0
  9 26  1  0  0  0
  7 27  1  0  0  0
 11 28  2  0  0  0
 25 29  1  0  0  0
 32 27  1  0  0  0
 30 26  1  0  0  0
 31 32  1  0  0  0
 32 33  1  0  0  0
 33 34  1  0  0  0
 34 35  1  0  0  0
 35 36  1  0  0  0
 31 36  1  0  0  0
 37 30  1  0  0  0
 30 38  1  0  0  0
 38 39  1  0  0  0
 39 40  1  0  0  0
 40 41  1  0  0  0
 37 41  1  0  0  0
 31 42  1  0  0  0
 39 43  1  0  0  0
 41 44  1  0  0  0
 34 45  1  0  0  0
 36 46  1  0  0  0
 41 47  1  0  0  0
 40 48  1  0  0  0
 47 49  1  0  0  0
 46 50  1  0  0  0
 46 51  1  0  0  0
  8 52  1  0  0  0
  2 53  1  0  0  0
  2 54  1  0  0  0
  3 55  1  0  0  0
  4 56  1  0  0  0
  5 57  1  0  0  0
  5 58  1  0  0  0
  7 59  1  0  0  0
  8 60  1  0  0  0
 10 61  1  0  0  0
 13 62  1  0  0  0
 15 63  1  0  0  0
 16 64  1  0  0  0
 16 65  1  0  0  0
 16 66  1  0  0  0
 17 67  1  0  0  0
 17 68  1  0  0  0
 17 69  1  0  0  0
 18 70  1  0  0  0
 19 71  1  0  0  0
 20 72  1  0  0  0
 20 73  1  0  0  0
 20 74  1  0  0  0
 21 75  1  0  0  0
 22 76  1  0  0  0
 22 77  1  0  0  0
 22 78  1  0  0  0
 23 79  1  0  0  0
 23 80  1  0  0  0
 23 81  1  0  0  0
 24 82  1  0  0  0
 24 83  1  0  0  0
 24 84  1  0  0  0
 25 85  1  0  0  0
 25 86  1  0  0  0
 29 87  1  0  0  0
 29 88  1  0  0  0
 29 89  1  0  0  0
 31 90  1  0  0  0
 32 91  1  0  0  0
 34 92  1  0  0  0
 35 93  1  0  0  0
 35 94  1  0  0  0
 36 95  1  0  0  0
 39 96  1  0  0  0
 40 97  1  0  0  0
 42 98  1  0  0  0
 43 99  1  0  0  0
 43100  1  0  0  0
 43101  1  0  0  0
 44102  1  0  0  0
 44103  1  0  0  0
 44104  1  0  0  0
 45105  1  0  0  0
 45106  1  0  0  0
 45107  1  0  0  0
 48108  1  0  0  0
 49109  1  0  0  0
 49110  1  0  0  0
 49111  1  0  0  0
 50112  1  0  0  0
 50113  1  0  0  0
 50114  1  0  0  0
 51115  1  0  0  0
 51116  1  0  0  0
 51117  1  0  0  0
 52118  1  0  0  0
 52119  1  0  0  0
 52120  1  0  0  0
121  9  1  0  0  0
122 30  1  0  0  0
123 37  1  0  0  0
124 37  1  0  0  0
M  END
