CIP:ZZ;BB:P-16.2.4.4, P-16.5.1.7, P-93.4.2.1.1
__Jmol-14_05291700433D 1   1.00000     0.00000     0
Jmol version 14.17.2  2017-05-27 15:31 EXTRACT: ({0:14})
 15 14  0  0  0  0              1 V2000
  -1.73037   0.38985   1.44508 C   0  0  0  0  0  0
  -2.69539  -0.50347   1.12658 C   0  0  0  0  0  0
  -0.24971   0.19337   1.35237 C   0  0  0  0  0  0
  -4.14386  -0.12728   1.28636 C   0  0  0  0  0  0
  -2.31696  -1.88566   0.60682 C   0  0  0  0  0  0
  -1.17331  -2.27498   0.43774 O   0  0  0  0  0  0
  -3.37050  -2.69495   0.33001 O   0  0  0  0  0  0
  -2.02404   1.36772   1.81221 H   0  0  0  0  0  0
   0.06147   0.00269   0.32078 H   0  0  0  0  0  0
   0.08339  -0.62195   2.00176 H   0  0  0  0  0  0
   0.26716   1.09877   1.68197 H   0  0  0  0  0  0
  -4.64311  -0.79581   1.99453 H   0  0  0  0  0  0
  -4.66611  -0.17622   0.32587 H   0  0  0  0  0  0
  -4.27164   0.89142   1.66679 H   0  0  0  0  0  0
  -4.25383  -2.32481   0.48793 H   0  0  0  0  0  0
  1  2  2  0  0  0
  1  3  1  0  0  0
  2  4  1  0  0  0
  2  5  1  0  0  0
  5  6  2  0  0  0
  5  7  1  0  0  0
  1  8  1  0  0  0
  3  9  1  0  0  0
  3 10  1  0  0  0
  3 11  1  0  0  0
  4 12  1  0  0  0
  4 13  1  0  0  0
  4 14  1  0  0  0
  7 15  1  0  0  0
M  END
