CIP:srsr;BB:P-16.2.4.4, P-16.5.1.7, P-93.4.2.1.1
__Jmol-14_05291700453D 1   1.00000     0.00000     0
Jmol version 14.17.2  2017-05-27 15:31 EXTRACT: ({0:49})
 50 51  0  0  0  0              1 V2000
  -2.86598  -4.89785   0.72755 C   0  0  0  0  0  0
  -4.84352  -5.12653   0.33714 C   0  0  0  0  0  0
  -5.68594  -5.78189  -0.83254 C   0  0  0  0  0  0
  -6.64660  -6.29441  -1.33631 N   0  0  0  0  0  0
  -5.13257  -6.23288   1.23080 C   0  0  0  0  0  0
  -5.40764  -7.07901   1.91247 N   0  0  0  0  0  0
  -2.68170  -6.00730   1.67669 C   0  0  0  0  0  0
  -2.48207  -6.80120   2.44567 N   0  0  0  0  0  0
  -1.59590  -5.27534  -0.02928 C   0  0  0  0  0  0
  -0.43185  -5.53523  -0.10600 N   0  0  0  0  0  0
  -2.20266  -3.66674   1.73315 C   0  0  0  0  0  0
  -6.04248  -3.98247   0.94933 C   0  0  0  0  0  0
  -2.95145  -1.65525   0.55516 C   0  0  0  0  0  0
  -3.05314  -2.48543   1.89718 C   0  0  0  0  0  0
  -1.70836  -0.87328   0.31720 C   0  0  0  0  0  0
  -0.63399  -1.47776   1.19866 C   0  0  0  0  0  0
  -0.80144  -2.92837   1.81518 C   0  0  0  0  0  0
  -7.87420  -2.20226   0.01899 C   0  0  0  0  0  0
  -7.53278  -3.62022   0.61993 C   0  0  0  0  0  0
  -7.19160  -0.91663   0.52808 C   0  0  0  0  0  0
  -5.77461  -1.23686   0.47172 C   0  0  0  0  0  0
  -5.46952  -2.67324   0.88376 C   0  0  0  0  0  0
  -1.51744  -0.90631  -1.21773 C   0  0  0  0  0  0
  -7.39169  -0.33298   1.95448 C   0  0  0  0  0  0
  -2.21377  -4.10511   2.77514 H   0  0  0  0  0  0
  -6.11043  -4.25040   2.02465 H   0  0  0  0  0  0
  -3.63450  -0.78168   0.62856 H   0  0  0  0  0  0
  -3.14602  -2.23216  -0.33224 H   0  0  0  0  0  0
  -2.82029  -1.88057   2.74851 H   0  0  0  0  0  0
  -3.89700  -3.01843   2.25047 H   0  0  0  0  0  0
  -1.85108   0.16832   0.59231 H   0  0  0  0  0  0
  -0.50041  -0.74893   2.03560 H   0  0  0  0  0  0
   0.28744  -1.44005   0.68969 H   0  0  0  0  0  0
   0.00717  -3.55750   1.48029 H   0  0  0  0  0  0
  -0.61839  -2.75277   2.87285 H   0  0  0  0  0  0
  -8.91894  -2.05841   0.05210 H   0  0  0  0  0  0
  -7.63620  -2.25641  -1.07224 H   0  0  0  0  0  0
  -8.07659  -3.63298   1.59332 H   0  0  0  0  0  0
  -8.00637  -4.36854   0.04985 H   0  0  0  0  0  0
  -7.36307  -0.10592  -0.15542 H   0  0  0  0  0  0
  -5.26025  -0.52436   1.09466 H   0  0  0  0  0  0
  -5.41935  -1.08917  -0.57619 H   0  0  0  0  0  0
  -4.59575  -2.90644   0.29005 H   0  0  0  0  0  0
  -5.40950  -2.44412   1.96375 H   0  0  0  0  0  0
  -1.47693  -1.89103  -1.64083 H   0  0  0  0  0  0
  -0.58667  -0.39447  -1.49075 H   0  0  0  0  0  0
  -2.34379  -0.33199  -1.73026 H   0  0  0  0  0  0
  -6.79313   0.62036   2.06914 H   0  0  0  0  0  0
  -7.10459  -0.98430   2.74291 H   0  0  0  0  0  0
  -8.43443  -0.02445   2.10341 H   0  0  0  0  0  0
  1  2  1  0  0  0
  1  7  1  0  0  0
  1  9  1  0  0  0
 11  1  1  0  0  0
  2  3  1  0  0  0
  2  5  1  0  0  0
 12  2  1  0  0  0
  3  4  3  0  0  0
  5  6  3  0  0  0
  7  8  3  0  0  0
  9 10  3  0  0  0
 11 14  1  0  0  0
 11 17  1  0  0  0
 12 19  1  0  0  0
 12 22  1  0  0  0
 13 14  1  0  0  0
 13 15  1  0  0  0
 15 16  1  0  0  0
 15 23  1  0  0  0
 16 17  1  0  0  0
 18 19  1  0  0  0
 18 20  1  0  0  0
 20 21  1  0  0  0
 20 24  1  0  0  0
 21 22  1  0  0  0
 11 25  1  0  0  0
 12 26  1  0  0  0
 13 27  1  0  0  0
 13 28  1  0  0  0
 14 29  1  0  0  0
 14 30  1  0  0  0
 15 31  1  0  0  0
 16 32  1  0  0  0
 16 33  1  0  0  0
 17 34  1  0  0  0
 17 35  1  0  0  0
 18 36  1  0  0  0
 18 37  1  0  0  0
 19 38  1  0  0  0
 19 39  1  0  0  0
 20 40  1  0  0  0
 21 41  1  0  0  0
 21 42  1  0  0  0
 22 43  1  0  0  0
 22 44  1  0  0  0
 23 45  1  0  0  0
 23 46  1  0  0  0
 23 47  1  0  0  0
 24 48  1  0  0  0
 24 49  1  0  0  0
 24 50  1  0  0  0
M  END
