CIP:sSR;BB:P-16.2.4.4, P-16.5.1.7, P-93.4.2.1.1
__Jmol-14_05291700443D 1   1.00000     0.00000     0
Jmol version 14.17.2  2017-05-27 15:31 EXTRACT: ({0:21})
 22 21  0  0  0  0              1 V2000
   3.61555  -0.15216   1.16087 C   0  0  0  0  0  0
   3.13697  -1.21508   1.50342 O   0  0  0  0  0  0
   4.93454   0.02038   1.31914 O   0  0  0  0  0  0
   2.92770   0.98517   0.40025 C   0  0  0  0  0  0
   1.37009   0.85505   0.43418 C   0  0  0  0  0  0
   0.81810  -0.52218   0.06363 C   0  0  0  0  0  0
   0.79376   1.74548  -0.52928 O   0  0  0  0  0  0
   3.35524   2.42483   0.84079 C   0  0  0  0  0  0
   4.85737   2.72755   0.87074 C   0  0  0  0  0  0
   2.76168   3.38535  -0.04901 O   0  0  0  0  0  0
   5.24240  -0.84329   1.67082 H   0  0  0  0  0  0
   3.23270   0.86117  -0.64218 H   0  0  0  0  0  0
   0.97654   1.13528   1.41552 H   0  0  0  0  0  0
   1.37294  -0.95851  -0.77040 H   0  0  0  0  0  0
  -0.22496  -0.45561  -0.25384 H   0  0  0  0  0  0
   0.85060  -1.21765   0.90859 H   0  0  0  0  0  0
   1.00669   2.66032  -0.24130 H   0  0  0  0  0  0
   2.95549   2.64038   1.83395 H   0  0  0  0  0  0
   5.04688   3.80662   0.84299 H   0  0  0  0  0  0
   5.37021   2.29710   0.00786 H   0  0  0  0  0  0
   5.32620   2.34471   1.78355 H   0  0  0  0  0  0
   2.97072   3.12147  -0.96465 H   0  0  0  0  0  0
  1  2  2  0  0  0
  1  3  1  0  0  0
  4  1  1  0  0  0
  4  5  1  0  0  0
  4  8  1  0  0  0
  5  6  1  0  0  0
  5  7  1  0  0  0
  8  9  1  0  0  0
  8 10  1  0  0  0
  3 11  1  0  0  0
  4 12  1  0  0  0
  5 13  1  0  0  0
  6 14  1  0  0  0
  6 15  1  0  0  0
  6 16  1  0  0  0
  7 17  1  0  0  0
  8 18  1  0  0  0
  9 19  1  0  0  0
  9 20  1  0  0  0
  9 21  1  0  0  0
 10 22  1  0  0  0
M  END
