CIP:1S; BB:P-93.2.5;
__Jmol-14_05301721583D 1   1.00000     0.00000     0
Jmol version 14.17.2  2017-05-27 15:31 EXTRACT: ({0:18})
 19 19  0  0  0  0              1 V2000
  -1.34618   2.36167  -0.47560 S   0  0  0  0  0  0
  -1.75705   2.25857  -1.75494 O   0  0  0  0  0  0
  -1.70971   0.84193   0.31278 S   0  0  0  0  0  0
   0.23068   2.69999  -0.50727 C   0  0  0  0  0  0
  -2.02041   3.48619   0.31785 O   0  0  0  0  0  0
  -2.60146   4.46822  -0.52483 C   0  0  0  0  0  0
   0.67471   4.11052  -0.73456 C   0  0  0  0  0  0
   1.19703   1.76125  -0.35148 C   0  0  0  0  0  0
   1.97867   4.43768  -0.78494 C   0  0  0  0  0  0
   2.63672   2.12859  -0.39782 C   0  0  0  0  0  0
   3.00806   3.39636  -0.60486 C   0  0  0  0  0  0
  -3.66255   4.23994  -0.73625 H   0  0  0  0  0  0
  -2.07551   4.64198  -1.48790 H   0  0  0  0  0  0
  -2.55921   5.43250   0.02454 H   0  0  0  0  0  0
  -0.01300   4.92826  -0.86989 H   0  0  0  0  0  0
   0.97024   0.71691  -0.18916 H   0  0  0  0  0  0
   2.27983   5.46479  -0.95384 H   0  0  0  0  0  0
   3.38979   1.35652  -0.26194 H   0  0  0  0  0  0
   4.06016   3.66260  -0.63969 H   0  0  0  0  0  0
  1  2  2  0  0  0
  1  3  2  0  0  0
  1  4  1  0  0  0
  1  5  1  0  0  0
  4  7  1  0  0  0
  4  8  2  0  0  0
  5  6  1  0  0  0
  7  9  2  0  0  0
  8 10  1  0  0  0
  9 11  1  0  0  0
 10 11  2  0  0  0
  6 12  1  0  0  0
  6 13  1  0  0  0
  6 14  1  0  0  0
  7 15  1  0  0  0
  8 16  1  0  0  0
  9 17  1  0  0  0
 10 18  1  0  0  0
 11 19  1  0  0  0
M  END
