CIP:7R; BB:P-91.3;
__Jmol-14_05301721583D 1   1.00000     0.00000     0
Jmol version 14.17.2  2017-05-27 15:31 EXTRACT: ({0:20})
 21 21  0  0  0  0              1 V2000
   5.44212  -0.47039   0.49345 C   0  0  0  0  0  0
   6.05812  -1.69167   0.74213 C   0  0  0  0  0  0
   4.05939  -0.40412   0.33569 C   0  0  0  0  0  0
   5.29124  -2.84536   0.82670 C   0  0  0  0  0  0
   3.25048  -1.55333   0.44750 C   0  0  0  0  0  0
   3.90853  -2.78056   0.68222 C   0  0  0  0  0  0
   1.72934  -1.43998   0.29704 C   0  0  0  0  0  0
   1.09611  -0.22072   1.45837 Cl  0  0  0  0  0  0
   0.95459  -2.76787   0.46519 C   0  0  0  0  0  0
  -0.55019  -2.66108   0.25656 C   0  0  0  0  0  0
   6.04004   0.43306   0.42887 H   0  0  0  0  0  0
   7.13499  -1.74335   0.87051 H   0  0  0  0  0  0
   3.60975   0.56676   0.14265 H   0  0  0  0  0  0
   5.77025  -3.80227   1.01335 H   0  0  0  0  0  0
   3.35731  -3.71025   0.76376 H   0  0  0  0  0  0
   1.52369  -1.04836  -0.70596 H   0  0  0  0  0  0
   1.13604  -3.19105   1.45993 H   0  0  0  0  0  0
   1.32991  -3.50057  -0.25732 H   0  0  0  0  0  0
  -0.78475  -2.22756  -0.71970 H   0  0  0  0  0  0
  -1.02817  -2.05456   1.03050 H   0  0  0  0  0  0
  -1.00264  -3.65610   0.30131 H   0  0  0  0  0  0
  1  2  1  0  0  0
  1  3  2  0  0  0
  2  4  2  0  0  0
  3  5  1  0  0  0
  4  6  1  0  0  0
  5  6  2  0  0  0
  5  7  1  0  0  0
  7  8  1  0  0  0
  7  9  1  0  0  0
  9 10  1  0  0  0
  1 11  1  0  0  0
  2 12  1  0  0  0
  3 13  1  0  0  0
  4 14  1  0  0  0
  6 15  1  0  0  0
  7 16  1  0  0  0
  9 17  1  0  0  0
  9 18  1  0  0  0
 10 19  1  0  0  0
 10 20  1  0  0  0
 10 21  1  0  0  0
M  END
