CIP:1R 3R 4S 7S; BB:P-93.5.2.1;
__Jmol-14_05301721583D 1   1.00000     0.00000     0
Jmol version 14.17.2  2017-05-27 15:31 EXTRACT: ({0:13})
 14 16  0  0  0  0              1 V2000
  -3.07083   1.74262   0.19032 C   0  0  0  0  0  0
  -2.60352   2.25884   1.45403 O   0  0  0  0  0  0
  -1.71716   1.38835   0.71453 C   0  0  0  0  0  0
  -1.84752  -0.09691   0.89612 C   0  0  0  0  0  0
  -2.68423  -0.37460   2.03078 O   0  0  0  0  0  0
  -4.01276  -0.15452   1.51284 C   0  0  0  0  0  0
  -3.73011   0.39427   0.12015 C   0  0  0  0  0  0
  -2.64634  -0.45522  -0.22357 O   0  0  0  0  0  0
  -0.84582   1.75129   0.18909 H   0  0  0  0  0  0
  -3.21308   2.41112  -0.64717 H   0  0  0  0  0  0
  -4.56242   0.32556  -0.59059 H   0  0  0  0  0  0
  -0.89694  -0.64459   0.93710 H   0  0  0  0  0  0
  -4.57354   0.53463   2.15772 H   0  0  0  0  0  0
  -4.52611  -1.11763   1.47699 H   0  0  0  0  0  0
  1  7  1  0  0  0
  1  2  1  0  0  0
  1  3  1  0  0  0
  1 10  1  0  0  0
  2  3  1  0  0  0
  3  4  1  0  0  0
  3  9  1  0  0  0
  4  8  1  0  0  0
  4  5  1  0  0  0
  4 12  1  0  0  0
  5  6  1  0  0  0
  6  7  1  0  0  0
  7  8  1  0  0  0
  7 11  1  0  0  0
 13  6  1  0  0  0
 14  6  1  0  0  0
M  END
