CIP:SEER;BB:P-16.2.4.4, P-16.5.1.7, P-93.4.2.1.1
__Jmol-14_05291700453D 1   1.00000     0.00000     0
Jmol version 14.17.2  2017-05-27 15:31 EXTRACT: ({0:41})
 42 43  0  0  0  0              1 V2000
   2.08304   4.21323   0.32840 C   0  0  0  0  0  0
   1.67345   2.72396   0.57202 C   0  0  0  0  0  0
   0.52341   2.37575   1.55036 C   0  0  0  0  0  0
  -0.81620   2.21797   0.88996 C   0  0  0  0  0  0
  -1.97992   2.63683   1.42258 C   0  0  0  0  0  0
  -3.28067   2.60025   0.66987 C   0  0  0  0  0  0
  -4.15636   3.82636   0.98980 C   0  0  0  0  0  0
  -4.59681   4.65213  -0.22722 C   0  0  0  0  0  0
  -3.52578   5.42460  -1.02458 C   0  0  0  0  0  0
  -2.63574   6.41922  -0.25039 C   0  0  0  0  0  0
  -1.42443   5.75676   0.42839 C   0  0  0  0  0  0
  -0.03442   6.36790   0.13014 C   0  0  0  0  0  0
   0.84462   6.14451   1.32651 C   0  0  0  0  0  0
   1.75940   5.17119   1.43009 C   0  0  0  0  0  0
   1.73016   4.78254  -1.06455 C   0  0  0  0  0  0
   0.58384   5.81535  -1.18030 C   0  0  0  0  0  0
   3.18197   4.17719   0.31681 H   0  0  0  0  0  0
   2.55904   2.23913   0.99141 H   0  0  0  0  0  0
   1.52224   2.21443  -0.38349 H   0  0  0  0  0  0
   0.47873   3.07365   2.38923 H   0  0  0  0  0  0
   0.75994   1.39935   1.99366 H   0  0  0  0  0  0
  -0.82757   1.73390  -0.07989 H   0  0  0  0  0  0
  -1.97816   3.08458   2.40923 H   0  0  0  0  0  0
  -3.81945   1.69378   0.97659 H   0  0  0  0  0  0
  -3.10884   2.50969  -0.40651 H   0  0  0  0  0  0
  -3.69462   4.48685   1.72585 H   0  0  0  0  0  0
  -5.06753   3.45858   1.47131 H   0  0  0  0  0  0
  -5.13114   3.99150  -0.92207 H   0  0  0  0  0  0
  -5.34329   5.37049   0.11963 H   0  0  0  0  0  0
  -4.06652   6.00185  -1.78563 H   0  0  0  0  0  0
  -2.90267   4.72470  -1.58497 H   0  0  0  0  0  0
  -3.23774   6.93724   0.50235 H   0  0  0  0  0  0
  -2.29475   7.19094  -0.94350 H   0  0  0  0  0  0
  -1.61527   5.75787   1.50932 H   0  0  0  0  0  0
  -1.38039   4.71947   0.12398 H   0  0  0  0  0  0
  -0.14854   7.44959   0.01408 H   0  0  0  0  0  0
   0.67958   6.79149   2.17923 H   0  0  0  0  0  0
   2.31007   5.06866   2.35659 H   0  0  0  0  0  0
   1.58505   3.98281  -1.79495 H   0  0  0  0  0  0
   2.63095   5.29590  -1.42795 H   0  0  0  0  0  0
  -0.19122   5.41644  -1.83902 H   0  0  0  0  0  0
   0.98430   6.66847  -1.73796 H   0  0  0  0  0  0
  1  2  1  0  0  0
  1 14  1  0  0  0
  1 15  1  0  0  0
  2  3  1  0  0  0
  3  4  1  0  0  0
  4  5  2  0  0  0
  5  6  1  0  0  0
  6  7  1  0  0  0
  7  8  1  0  0  0
  8  9  1  0  0  0
  9 10  1  0  0  0
 10 11  1  0  0  0
 12 11  1  0  0  0
 12 13  1  0  0  0
 12 16  1  0  0  0
 13 14  2  0  0  0
 15 16  1  0  0  0
  1 17  1  0  0  0
  2 18  1  0  0  0
  2 19  1  0  0  0
  3 20  1  0  0  0
  3 21  1  0  0  0
  4 22  1  0  0  0
  5 23  1  0  0  0
  6 24  1  0  0  0
  6 25  1  0  0  0
  7 26  1  0  0  0
  7 27  1  0  0  0
  8 28  1  0  0  0
  8 29  1  0  0  0
  9 30  1  0  0  0
  9 31  1  0  0  0
 10 32  1  0  0  0
 10 33  1  0  0  0
 11 34  1  0  0  0
 11 35  1  0  0  0
 12 36  1  0  0  0
 13 37  1  0  0  0
 14 38  1  0  0  0
 15 39  1  0  0  0
 15 40  1  0  0  0
 16 41  1  0  0  0
 16 42  1  0  0  0
M  END
