CIP:RS;BB:P-16.2.4.4, P-16.5.1.7, P-93.4.2.1.1
__Jmol-14_05291700443D 1   1.00000     0.00000     0
Jmol version 14.17.2  2017-05-27 15:31 EXTRACT: ({0:17})
 18 18  0  0  0  0              1 V2000
  -0.72973   2.64203  -0.39925 C   0  0  0  0  0  0
   0.55425   2.09261   0.24451 C   0  0  0  0  0  0
  -0.63194   4.16648  -0.33370 C   0  0  0  0  0  0
   1.56925   3.20982  -0.00671 C   0  0  0  0  0  0
   0.84116   4.51446  -0.12031 C   0  0  0  0  0  0
   0.39850   1.59540   1.67084 C   0  0  0  0  0  0
   2.47519   2.87795  -1.55390 Cl  0  0  0  0  0  0
  -0.69967   1.33234   2.21644 O   0  0  0  0  0  0
   1.54788   1.29690   2.30084 O   0  0  0  0  0  0
  -1.63311   2.29127   0.06475 H   0  0  0  0  0  0
  -0.74955   2.34759  -1.43107 H   0  0  0  0  0  0
   0.79894   1.22294  -0.28559 H   0  0  0  0  0  0
  -1.21677   4.52519   0.49031 H   0  0  0  0  0  0
  -1.02105   4.61593  -1.23739 H   0  0  0  0  0  0
   2.35652   3.26432   0.78447 H   0  0  0  0  0  0
   0.91639   5.07544   0.85002 H   0  0  0  0  0  0
   1.20715   5.18018  -0.88259 H   0  0  0  0  0  0
   2.34246   1.24097   1.69333 H   0  0  0  0  0  0
  1  2  1  0  0  0
  1  3  1  0  0  0
  2  4  1  0  0  0
  2  6  1  0  0  0
  3  5  1  0  0  0
  4  5  1  0  0  0
  4  7  1  0  0  0
  6  8  2  0  0  0
  6  9  1  0  0  0
  1 10  1  0  0  0
  1 11  1  0  0  0
  2 12  1  0  0  0
  3 13  1  0  0  0
  3 14  1  0  0  0
  4 15  1  0  0  0
  5 16  1  0  0  0
  5 17  1  0  0  0
  9 18  1  0  0  0
M  END
