CIP:R;BB:P-16.2.4.4, P-16.5.1.7, P-93.4.2.1.1
__Jmol-14_05291700443D 1   1.00000     0.00000     0
Jmol version 14.17.2  2017-05-27 15:31 EXTRACT: ({0:38})
 39 39  0  0  0  0              1 V2000
  -4.52999   2.67647   0.95023 N   0  3  0  0  0  0
  -5.39696   3.88928   0.86020 C   0  0  0  0  0  0
  -3.02642   3.09974   1.16781 C   0  0  0  0  0  0
  -7.69548   4.66650   0.54038 C   0  0  0  0  0  0
  -7.46416   5.71817   1.49559 C   0  0  0  0  0  0
  -6.68211   3.87304   0.15539 C   0  0  0  0  0  0
  -6.22433   5.91039   1.97521 C   0  0  0  0  0  0
  -5.17935   4.94460   1.69255 C   0  0  0  0  0  0
  -1.78722   2.27767   0.78414 C   0  0  0  0  0  0
  -0.52411   3.02556   0.86338 C   0  0  0  0  0  0
  -1.69762   0.98687   0.37926 C   0  0  0  0  0  0
   0.64353   2.49458   0.45376 C   0  0  0  0  0  0
  -0.45097   0.43023  -0.11422 C   0  0  0  0  0  0
   0.67253   1.15803  -0.09363 C   0  0  0  0  0  0
  -5.03872   1.86639   2.16651 C   0  0  0  0  0  0
  -4.66236   1.81754  -0.32907 C   0  0  0  0  0  0
  -6.42260   1.27360   2.06660 C   0  0  0  0  0  0
  -6.78152   0.03886   2.42831 C   0  0  0  0  0  0
  -8.93607   1.01046  -1.28907 Br  0  5  0  0  0  0
  -2.92525   3.34467   2.23466 H   0  0  0  0  0  0
  -2.91540   4.04231   0.61448 H   0  0  0  0  0  0
  -8.68523   4.54238   0.10691 H   0  0  0  0  0  0
  -8.28853   6.37263   1.75604 H   0  0  0  0  0  0
  -6.90306   3.17115  -0.63276 H   0  0  0  0  0  0
  -6.02115   6.72338   2.66074 H   0  0  0  0  0  0
  -4.31029   5.04721   2.32389 H   0  0  0  0  0  0
  -0.51830   4.02806   1.28621 H   0  0  0  0  0  0
  -2.52435   0.29979   0.35371 H   0  0  0  0  0  0
   1.57445   3.04192   0.52766 H   0  0  0  0  0  0
  -0.45715  -0.57505  -0.53285 H   0  0  0  0  0  0
   1.61269   0.76761  -0.48031 H   0  0  0  0  0  0
  -5.01598   2.52879   3.03938 H   0  0  0  0  0  0
  -4.30548   1.07597   2.35524 H   0  0  0  0  0  0
  -5.69779   1.66786  -0.62442 H   0  0  0  0  0  0
  -4.30736   0.81161  -0.12545 H   0  0  0  0  0  0
  -4.09795   2.28034  -1.14209 H   0  0  0  0  0  0
  -7.22097   1.88310   1.66057 H   0  0  0  0  0  0
  -6.09920  -0.67768   2.86941 H   0  0  0  0  0  0
  -7.81080  -0.28712   2.26827 H   0  0  0  0  0  0
  1  2  1  0  0  0
  1  3  1  0  0  0
  1 15  1  0  0  0
  1 16  1  0  0  0
  2  6  1  0  0  0
  2  8  2  0  0  0
  3  9  1  0  0  0
  4  5  1  0  0  0
  4  6  2  0  0  0
  5  7  2  0  0  0
  7  8  1  0  0  0
  9 10  1  0  0  0
  9 11  2  0  0  0
 10 12  2  0  0  0
 11 13  1  0  0  0
 12 14  1  0  0  0
 13 14  2  0  0  0
 15 17  1  0  0  0
 17 18  2  0  0  0
  3 20  1  0  0  0
  3 21  1  0  0  0
  4 22  1  0  0  0
  5 23  1  0  0  0
  6 24  1  0  0  0
  7 25  1  0  0  0
  8 26  1  0  0  0
 10 27  1  0  0  0
 11 28  1  0  0  0
 12 29  1  0  0  0
 13 30  1  0  0  0
 14 31  1  0  0  0
 15 32  1  0  0  0
 15 33  1  0  0  0
 16 34  1  0  0  0
 16 35  1  0  0  0
 16 36  1  0  0  0
 17 37  1  0  0  0
 18 38  1  0  0  0
 18 39  1  0  0  0
M  END
