CIP:MM;BB:P-16.2.4.4, P-16.5.1.7, P-93.4.2.1.1
__Jmol-14_05291700473D 1   1.00000     0.00000     0
Jmol version 14.17.2  2017-05-27 15:31 EXTRACT: ({0:32})
 33 34  0  0  0  0              1 V2000
   5.39305   0.68547  -0.02372 C   0  0  0  0  0  0
   6.76941   1.36917  -0.00544 C   0  0  0  0  0  0
   5.54275  -0.68805  -0.07579 C   0  0  0  0  0  0
   7.89953   0.69680   0.27869 C   0  0  0  0  0  0
   6.71105  -1.31175   0.53769 C   0  0  0  0  0  0
   7.85007  -0.64574   0.73846 C   0  0  0  0  0  0
   4.00838   1.44312  -0.15475 C   0  0  0  0  0  0
   2.74832   0.88232  -0.21843 C   0  0  0  0  0  0
   3.87957   2.94039   0.03192 C   0  0  0  0  0  0
   1.58306   1.66608  -0.70310 C   0  0  0  0  0  0
   2.79811   3.64367  -0.33606 C   0  0  0  0  0  0
   1.63922   2.98972  -0.82961 C   0  0  0  0  0  0
   4.80052   3.60609   0.77890 N   0  0  0  0  0  0
   6.86534   2.70013  -0.45474 O   0  0  0  0  0  0
   7.88652   3.51888   0.19322 C   0  0  0  0  0  0
   2.39907  -0.46715   0.36894 C   0  0  0  0  0  0
   2.90876  -0.93683   1.37619 O   0  0  0  0  0  0
   1.41681  -1.14431  -0.28582 O   0  0  0  0  0  0
   4.72988  -1.64867  -0.63933 N   0  0  0  0  0  0
   8.89262   1.11780   0.15862 H   0  0  0  0  0  0
   6.62906  -2.33128   0.89886 H   0  0  0  0  0  0
   8.70729  -1.07247   1.24302 H   0  0  0  0  0  0
   0.65585   1.18685  -0.97911 H   0  0  0  0  0  0
   2.70686   4.70944  -0.13308 H   0  0  0  0  0  0
   0.80021   3.58518  -1.18110 H   0  0  0  0  0  0
   5.69854   3.35994   0.39393 H   0  0  0  0  0  0
   4.70401   4.61742   0.74686 H   0  0  0  0  0  0
   8.54359   3.95222  -0.56321 H   0  0  0  0  0  0
   8.48628   3.00469   0.95192 H   0  0  0  0  0  0
   7.38370   4.32959   0.72963 H   0  0  0  0  0  0
   1.09477  -0.73438  -1.10819 H   0  0  0  0  0  0
   3.95349  -1.28719  -1.16871 H   0  0  0  0  0  0
   4.41345  -2.32215   0.06432 H   0  0  0  0  0  0
  1  2  1  0  0  0
  1  3  2  0  0  0
  1  7  1  0  0  0
  2  4  2  0  0  0
  2 14  1  0  0  0
  3  5  1  0  0  0
  3 19  1  0  0  0
  4  6  1  0  0  0
  5  6  2  0  0  0
  7  8  2  0  0  0
  7  9  1  0  0  0
  8 10  1  0  0  0
  8 16  1  0  0  0
  9 11  2  0  0  0
  9 13  1  0  0  0
 10 12  2  0  0  0
 11 12  1  0  0  0
 14 15  1  0  0  0
 16 17  2  0  0  0
 16 18  1  0  0  0
  4 20  1  0  0  0
  5 21  1  0  0  0
  6 22  1  0  0  0
 10 23  1  0  0  0
 11 24  1  0  0  0
 12 25  1  0  0  0
 13 26  1  0  0  0
 13 27  1  0  0  0
 15 28  1  0  0  0
 15 29  1  0  0  0
 15 30  1  0  0  0
 18 31  1  0  0  0
 19 32  1  0  0  0
 19 33  1  0  0  0
M  END
