CIP:S;BB:P-16.2.4.4, P-16.5.1.7, P-93.4.2.1.1
__Jmol-14_05291700433D 1   1.00000     0.00000     0
Jmol version 14.17.2  2017-05-27 15:31 EXTRACT: ({0:10})
 11 10  0  0  0  0              1 V2000
  -0.77012  -0.66091   0.31419 C   0  0  0  0  0  0
  -1.41794  -1.93161   0.83488 C   0  0  0  0  0  0
  -2.89429  -1.73202   1.12519 C   0  0  0  0  0  0
   0.44154  -0.51122   0.26025 O   0  0  0  0  0  0
  -0.76246  -2.36920   2.03105 O   0  0  0  0  0  0
  -1.45407   0.12267  -0.05620 H   0  0  0  0  0  0
  -1.30056  -2.70668   0.06860 H   0  0  0  0  0  0
  -3.04291  -0.97327   1.90272 H   0  0  0  0  0  0
  -3.34547  -2.65525   1.49246 H   0  0  0  0  0  0
  -3.43814  -1.40801   0.22882 H   0  0  0  0  0  0
   0.19373  -2.31614   1.85497 H   0  0  0  0  0  0
  1  2  1  0  0  0
  1  4  2  0  0  0
  2  3  1  0  0  0
  2  5  1  0  0  0
  1  6  1  0  0  0
  2  7  1  0  0  0
  3  8  1  0  0  0
  3  9  1  0  0  0
  3 10  1  0  0  0
  5 11  1  0  0  0
M  END
