CIP:1R; BB:P-92.1.4.3;
__Jmol-14_05301721583D 1   1.00000     0.00000     0
Jmol version 14.17.2  2017-05-27 15:31 EXTRACT: ({0:21})
 22 22  0  0  0  0              1 V2000
  -2.35452   1.24532  -0.81064 C   0  0  0  0  0  0
  -3.70078   1.98452  -0.56263 C   0  0  0  0  0  0
  -4.92575   1.22283  -1.06935 C   0  0  0  0  0  0
  -2.18855   0.91344  -2.19096 O   0  0  0  0  0  0
  -1.20596   2.10798  -0.31425 C   0  0  0  0  0  0
  -0.35393   2.88343  -1.29066 C   0  0  0  0  0  0
   0.26569   1.82301  -0.43013 C   0  0  0  0  0  0
  -3.71179   3.40477  -1.14877 C   0  0  0  0  0  0
  -2.34585   0.29940  -0.25107 H   0  0  0  0  0  0
  -3.81853   2.09105   0.51842 H   0  0  0  0  0  0
  -4.92458   1.11825  -2.15518 H   0  0  0  0  0  0
  -5.84505   1.75003  -0.79065 H   0  0  0  0  0  0
  -4.97959   0.22327  -0.62556 H   0  0  0  0  0  0
  -2.72573   0.12600  -2.37256 H   0  0  0  0  0  0
  -1.47904   2.58374   0.62170 H   0  0  0  0  0  0
  -0.17258   3.92799  -1.06609 H   0  0  0  0  0  0
  -0.43338   2.67494  -2.35458 H   0  0  0  0  0  0
   0.61001   0.91433  -0.90935 H   0  0  0  0  0  0
   0.88817   2.16463   0.39152 H   0  0  0  0  0  0
  -4.67372   3.89588  -0.96886 H   0  0  0  0  0  0
  -3.53033   3.40044  -2.22458 H   0  0  0  0  0  0
  -2.95400   4.04032  -0.68167 H   0  0  0  0  0  0
  1  2  1  0  0  0
  1  4  1  0  0  0
  1  5  1  0  0  0
  2  3  1  0  0  0
  2  8  1  0  0  0
  5  6  1  0  0  0
  5  7  1  0  0  0
  6  7  1  0  0  0
  1  9  1  0  0  0
  2 10  1  0  0  0
  3 11  1  0  0  0
  3 12  1  0  0  0
  3 13  1  0  0  0
  4 14  1  0  0  0
  5 15  1  0  0  0
  6 16  1  0  0  0
  6 17  1  0  0  0
  7 18  1  0  0  0
  7 19  1  0  0  0
  8 20  1  0  0  0
  8 21  1  0  0  0
  8 22  1  0  0  0
M  END
