CIP:2E 5E; BB:P-44.4.1.12.1, P-93.5.1.4.1;
__Jmol-14_05301721583D 1   1.00000     0.00000     0
Jmol version 14.17.2  2017-05-27 15:31 EXTRACT: ({0:21})
 22 22  0  0  0  0              1 V2000
   0.36791  -0.11689  -0.37844 C   0  0  0  0  0  0
   1.61346  -0.52826  -1.08693 C   0  0  0  0  0  0
   0.05103   1.36327  -0.67176 C   0  0  0  0  0  0
   1.21290   2.32535  -1.04680 C   0  0  0  0  0  0
   2.73043  -0.67940  -0.35816 C   0  0  0  0  0  0
   2.54409   2.22199  -0.26053 C   0  0  0  0  0  0
   3.97548   0.05489  -0.73406 C   0  0  0  0  0  0
   3.70710   1.54668  -1.04890 C   0  0  0  0  0  0
   0.47529  -0.23440   0.70839 H   0  0  0  0  0  0
  -0.47150  -0.75925  -0.66419 H   0  0  0  0  0  0
   1.67821  -0.25780  -2.13449 H   0  0  0  0  0  0
  -0.48080   1.77555   0.18871 H   0  0  0  0  0  0
  -0.67737   1.39887  -1.49306 H   0  0  0  0  0  0
   0.82911   3.34078  -0.92448 H   0  0  0  0  0  0
   1.40934   2.23833  -2.12375 H   0  0  0  0  0  0
   2.64761  -0.89286   0.70124 H   0  0  0  0  0  0
   2.39348   1.76501   0.72558 H   0  0  0  0  0  0
   2.86419   3.24714  -0.04180 H   0  0  0  0  0  0
   4.50173  -0.44120  -1.55808 H   0  0  0  0  0  0
   4.65532   0.01054   0.12686 H   0  0  0  0  0  0
   4.62988   2.09515  -0.84248 H   0  0  0  0  0  0
   3.54700   1.66473  -2.12933 H   0  0  0  0  0  0
  1  2  1  0  0  0
  1  3  1  0  0  0
  2  5  2  0  0  0
  3  4  1  0  0  0
  4  6  1  0  0  0
  5  7  1  0  0  0
  6  8  1  0  0  0
  7  8  1  0  0  0
  1  9  1  0  0  0
  1 10  1  0  0  0
  2 11  1  0  0  0
  3 12  1  0  0  0
  3 13  1  0  0  0
  4 14  1  0  0  0
  4 15  1  0  0  0
  5 16  1  0  0  0
  6 17  1  0  0  0
  6 18  1  0  0  0
  7 19  1  0  0  0
  7 20  1  0  0  0
  8 21  1  0  0  0
  8 22  1  0  0  0
M  END
