CIP:RSSSSRRSRSRRR;BB:P-16.2.4.4, P-16.5.1.7, P-93.4.2.1.1
__Jmol-14_05291700433D 1   1.00000     0.00000     0
Jmol version 14.17.2  2017-05-27 15:31 EXTRACT: ({0:83})
 84 83  0  0  0  0              1 V2000
  -3.19245  -1.09865  -0.80816 C   0  0  0  0  0  0
  -4.67377  -2.02776  -0.83653 C   0  0  0  0  0  0
  -6.43246  -1.91399  -0.81048 C   0  0  0  0  0  0
  -7.06927  -2.75791   0.56697 C   0  0  0  0  0  0
  -8.64108  -2.93140   0.77712 C   0  0  0  0  0  0
  -9.04538  -2.81251   2.25410 C   0  0  0  0  0  0
  -4.39677  -3.12267   0.00280 O   0  0  0  0  0  0
  -6.91689  -2.73481  -2.21393 C   0  0  0  0  0  0
  -6.16084  -2.45847  -3.55531 C   0  0  0  0  0  0
  -8.44204  -2.89988  -2.59860 C   0  0  0  0  0  0
  -8.72260  -4.28557  -3.20508 C   0  0  0  0  0  0
  -9.10128  -1.70648  -3.77205 Cl  0  0  0  0  0  0
  -6.86133  -0.34623  -0.73388 C   0  0  0  0  0  0
  -6.93119   0.34484  -2.08908 C   0  0  0  0  0  0
  -8.09153   0.18310   0.11652 C   0  0  0  0  0  0
  -7.95746   1.65782   0.49926 C   0  0  0  0  0  0
  -9.69832   0.04095  -0.68998 Cl  0  0  0  0  0  0
  -6.46611  -4.14813   0.93363 C   0  0  0  0  0  0
  -9.34092  -4.49165   0.18343 Cl  0  0  0  0  0  0
  -2.08095  -2.20003  -1.38781 C   0  0  0  0  0  0
  -1.71733  -3.62743  -0.79981 C   0  0  0  0  0  0
  -0.37858  -4.13992  -1.35483 C   0  0  0  0  0  0
  -2.85130   0.37241  -1.78406 C   0  0  0  0  0  0
  -3.83072   0.99532  -2.78275 C   0  0  0  0  0  0
  -1.44295   0.75466  -2.50819 C   0  0  0  0  0  0
  -0.26345   1.11947  -1.64141 C   0  0  0  0  0  0
  -0.87164  -0.21453  -3.89519 Cl  0  0  0  0  0  0
  -2.94032  -0.54366   0.77371 C   0  0  0  0  0  0
  -3.65948  -1.14480   2.00507 C   0  0  0  0  0  0
  -1.47266  -0.10897   1.17864 C   0  0  0  0  0  0
  -1.40311   1.32666   1.71256 C   0  0  0  0  0  0
  -0.63741  -1.10133   2.41621 Cl  0  0  0  0  0  0
  -2.45254  -2.55694  -2.85689 C   0  0  0  0  0  0
  -1.61835  -3.75238   0.96276 Cl  0  0  0  0  0  0
  -6.75606  -2.12026   1.39544 H   0  0  0  0  0  0
  -9.19223  -2.18009   0.24571 H   0  0  0  0  0  0
  -8.62461  -3.61228   2.86775 H   0  0  0  0  0  0
 -10.13630  -2.85010   2.36716 H   0  0  0  0  0  0
  -8.71566  -1.86109   2.68401 H   0  0  0  0  0  0
  -3.60415  -2.99528   0.55336 H   0  0  0  0  0  0
  -6.59776  -3.75516  -1.97058 H   0  0  0  0  0  0
  -6.48062  -1.55916  -4.07382 H   0  0  0  0  0  0
  -6.32360  -3.27904  -4.26067 H   0  0  0  0  0  0
  -5.08264  -2.37754  -3.49394 H   0  0  0  0  0  0
  -9.07169  -2.76883  -1.73796 H   0  0  0  0  0  0
  -8.24582  -4.41492  -4.17998 H   0  0  0  0  0  0
  -9.79521  -4.44056  -3.34634 H   0  0  0  0  0  0
  -8.36144  -5.08700  -2.55866 H   0  0  0  0  0  0
  -5.99904   0.10047  -0.22316 H   0  0  0  0  0  0
  -6.72332   1.41217  -1.98716 H   0  0  0  0  0  0
  -7.89672   0.28544  -2.57845 H   0  0  0  0  0  0
  -6.21833  -0.08615  -2.78007 H   0  0  0  0  0  0
  -8.16260  -0.35544   1.06048 H   0  0  0  0  0  0
  -8.77840   1.96847   1.15264 H   0  0  0  0  0  0
  -7.97630   2.32250  -0.37409 H   0  0  0  0  0  0
  -7.02601   1.84069   1.04163 H   0  0  0  0  0  0
  -6.23724  -4.75459   0.05043 H   0  0  0  0  0  0
  -7.11450  -4.75687   1.56859 H   0  0  0  0  0  0
  -5.57900  -4.05402   1.55998 H   0  0  0  0  0  0
  -1.13243  -1.66123  -1.40420 H   0  0  0  0  0  0
  -2.48424  -4.36539  -1.07130 H   0  0  0  0  0  0
  -0.10684  -5.10653  -0.92416 H   0  0  0  0  0  0
   0.43426  -3.44062  -1.13848 H   0  0  0  0  0  0
  -0.40728  -4.28746  -2.44033 H   0  0  0  0  0  0
  -2.89570   1.14317  -1.01857 H   0  0  0  0  0  0
  -3.61935   2.06679  -2.87366 H   0  0  0  0  0  0
  -3.77108   0.64182  -3.81625 H   0  0  0  0  0  0
  -4.82598   1.03530  -2.41467 H   0  0  0  0  0  0
  -1.61948   1.70434  -3.02167 H   0  0  0  0  0  0
   0.46145   1.70958  -2.20692 H   0  0  0  0  0  0
  -0.61199   1.75262  -0.82694 H   0  0  0  0  0  0
   0.27475   0.24495  -1.26573 H   0  0  0  0  0  0
  -3.49216   0.40126   0.73373 H   0  0  0  0  0  0
  -3.54538  -0.48110   2.86813 H   0  0  0  0  0  0
  -3.27532  -2.11401   2.32849 H   0  0  0  0  0  0
  -4.73305  -1.23926   1.85845 H   0  0  0  0  0  0
  -0.83139  -0.20417   0.31378 H   0  0  0  0  0  0
  -0.36465   1.65919   1.80670 H   0  0  0  0  0  0
  -1.86407   1.41306   2.70508 H   0  0  0  0  0  0
  -1.91020   2.03415   1.05459 H   0  0  0  0  0  0
  -3.09357  -3.44421  -2.92626 H   0  0  0  0  0  0
  -1.57261  -2.80443  -3.45653 H   0  0  0  0  0  0
  -2.98732  -1.76253  -3.37173 H   0  0  0  0  0  0
  -4.54926  -2.52498  -1.76692 H   0  0  0  0  0  0
  1  2  1  0  0  0
  1 20  1  0  0  0
  1 23  1  0  0  0
  1 28  1  0  0  0
  2  3  1  0  0  0
  2  7  1  0  0  0
  3  4  1  0  0  0
  3  8  1  0  0  0
  3 13  1  0  0  0
  4  5  1  0  0  0
  4 18  1  0  0  0
  5  6  1  0  0  0
  5 19  1  0  0  0
  8  9  1  0  0  0
  8 10  1  0  0  0
 10 11  1  0  0  0
 10 12  1  0  0  0
 13 14  1  0  0  0
 13 15  1  0  0  0
 15 16  1  0  0  0
 15 17  1  0  0  0
 20 21  1  0  0  0
 20 33  1  0  0  0
 21 22  1  0  0  0
 21 34  1  0  0  0
 23 24  1  0  0  0
 23 25  1  0  0  0
 25 26  1  0  0  0
 25 27  1  0  0  0
 28 29  1  0  0  0
 28 30  1  0  0  0
 30 31  1  0  0  0
 30 32  1  0  0  0
  4 35  1  0  0  0
  5 36  1  0  0  0
  6 37  1  0  0  0
  6 38  1  0  0  0
  6 39  1  0  0  0
  7 40  1  0  0  0
  8 41  1  0  0  0
  9 42  1  0  0  0
  9 43  1  0  0  0
  9 44  1  0  0  0
 10 45  1  0  0  0
 11 46  1  0  0  0
 11 47  1  0  0  0
 11 48  1  0  0  0
 13 49  1  0  0  0
 14 50  1  0  0  0
 14 51  1  0  0  0
 14 52  1  0  0  0
 15 53  1  0  0  0
 16 54  1  0  0  0
 16 55  1  0  0  0
 16 56  1  0  0  0
 18 57  1  0  0  0
 18 58  1  0  0  0
 18 59  1  0  0  0
 20 60  1  0  0  0
 21 61  1  0  0  0
 22 62  1  0  0  0
 22 63  1  0  0  0
 22 64  1  0  0  0
 23 65  1  0  0  0
 24 66  1  0  0  0
 24 67  1  0  0  0
 24 68  1  0  0  0
 25 69  1  0  0  0
 26 70  1  0  0  0
 26 71  1  0  0  0
 26 72  1  0  0  0
 28 73  1  0  0  0
 29 74  1  0  0  0
 29 75  1  0  0  0
 29 76  1  0  0  0
 30 77  1  0  0  0
 31 78  1  0  0  0
 31 79  1  0  0  0
 31 80  1  0  0  0
 33 81  1  0  0  0
 33 82  1  0  0  0
 33 83  1  0  0  0
 84  2  1  0  0  0
M  END
