CIP:RS;BB:P-16.2.4.4, P-16.5.1.7, P-93.4.2.1.1
__Jmol-14_05291700433D 1   1.00000     0.00000     0
Jmol version 14.17.2  2017-05-27 15:31 EXTRACT: ({0:31})
 32 31  0  0  0  0              1 V2000
   5.98400   0.68067   0.35819 C   0  0  0  0  0  0
   5.82837  -0.48067   0.70064 O   0  0  0  0  0  0
   7.18894   1.28226   0.13038 O   0  0  0  0  0  0
   4.87432   1.63410   0.01531 C   0  0  0  0  0  0
   3.51459   1.01036   0.32329 C   0  0  0  0  0  0
   1.01208   1.26906   0.03157 C   0  0  0  0  0  0
   2.36624   1.98184   0.05901 C   0  0  0  0  0  0
  -0.06303   2.12234  -0.62488 C   0  0  0  0  0  0
   2.36304   3.28284   1.30078 Cl  0  0  0  0  0  0
   8.24435  -0.08922  -1.51608 C   0  0  0  0  0  0
   8.28784   0.37784  -0.06005 C   0  0  0  0  0  0
   9.62983   1.06300   0.25849 C   0  0  0  0  0  0
   9.58225   2.58463   0.32629 C   0  0  0  0  0  0
   4.94309   1.85020  -1.05882 H   0  0  0  0  0  0
   5.03140   2.56624   0.56774 H   0  0  0  0  0  0
   3.48228   0.64874   1.35985 H   0  0  0  0  0  0
   3.39286   0.11929  -0.30812 H   0  0  0  0  0  0
   0.70319   0.99365   1.04801 H   0  0  0  0  0  0
   1.08705   0.33004  -0.53167 H   0  0  0  0  0  0
   2.53373   2.47792  -0.90494 H   0  0  0  0  0  0
   0.07636   2.13920  -1.71228 H   0  0  0  0  0  0
  -0.04760   3.15789  -0.27091 H   0  0  0  0  0  0
  -1.05324   1.71085  -0.42339 H   0  0  0  0  0  0
   9.05081  -0.78983  -1.73978 H   0  0  0  0  0  0
   8.32075   0.76421  -2.20060 H   0  0  0  0  0  0
   7.29559  -0.58131  -1.74434 H   0  0  0  0  0  0
   8.19733  -0.50145   0.59433 H   0  0  0  0  0  0
  10.39274   0.75025  -0.45723 H   0  0  0  0  0  0
   9.98734   0.69959   1.22958 H   0  0  0  0  0  0
   9.18156   2.91471   1.28830 H   0  0  0  0  0  0
   8.97554   3.01573  -0.47309 H   0  0  0  0  0  0
  10.59444   2.99460   0.23497 H   0  0  0  0  0  0
  1  2  2  0  0  0
  1  3  1  0  0  0
  1  4  1  0  0  0
  3 11  1  0  0  0
  4  5  1  0  0  0
  5  7  1  0  0  0
  6  7  1  0  0  0
  6  8  1  0  0  0
  7  9  1  0  0  0
 11 10  1  0  0  0
 11 12  1  0  0  0
 12 13  1  0  0  0
  4 14  1  0  0  0
  4 15  1  0  0  0
  5 16  1  0  0  0
  5 17  1  0  0  0
  6 18  1  0  0  0
  6 19  1  0  0  0
  7 20  1  0  0  0
  8 21  1  0  0  0
  8 22  1  0  0  0
  8 23  1  0  0  0
 10 24  1  0  0  0
 10 25  1  0  0  0
 10 26  1  0  0  0
 11 27  1  0  0  0
 12 28  1  0  0  0
 12 29  1  0  0  0
 13 30  1  0  0  0
 13 31  1  0  0  0
 13 32  1  0  0  0
M  END
