CIP:S;BB:P-16.2.4.4, P-16.5.1.7, P-93.4.2.1.1
__Jmol-14_05291700443D 1   1.00000     0.00000     0
Jmol version 14.17.2  2017-05-27 15:31 EXTRACT: ({0:17})
 18 18  0  0  0  0              1 V2000
  -0.62892   2.76419   0.65354 C   0  0  0  0  0  0
   0.22212   3.63611   1.46249 C   0  0  0  0  0  0
  -0.05208   1.83292  -0.13066 C   0  0  0  0  0  0
   1.55722   3.43975   1.49340 C   0  0  0  0  0  0
   1.37410   1.60251  -0.07415 C   0  0  0  0  0  0
   2.13984   2.36005   0.72115 C   0  0  0  0  0  0
  -2.12854   2.85173   0.80669 C   0  0  0  0  0  0
  -2.39257   3.52864   1.62376 H   0  0  0  0  0  0
  -2.73194   1.48090   1.11231 C   0  0  0  0  0  0
  -2.57707   3.27013  -0.10375 H   1  0  0  0  0  0
  -0.22558   4.44198   2.03196 H   0  0  0  0  0  0
  -0.63058   1.16366  -0.75357 H   0  0  0  0  0  0
   2.20705   4.07115   2.08677 H   0  0  0  0  0  0
   1.78730   0.76862  -0.63328 H   0  0  0  0  0  0
   3.20568   2.17206   0.81854 H   0  0  0  0  0  0
  -2.65160   0.80195   0.25902 H   0  0  0  0  0  0
  -3.79215   1.56831   1.36108 H   0  0  0  0  0  0
  -2.22341   1.00755   1.96255 H   0  0  0  0  0  0
  1  2  1  0  0  0
  1  3  2  0  0  0
  1  7  1  0  0  0
  2  4  2  0  0  0
  3  5  1  0  0  0
  4  6  1  0  0  0
  5  6  2  0  0  0
  7  8  1  0  0  0
  7  9  1  0  0  0
  7 10  1  0  0  0
  2 11  1  0  0  0
  3 12  1  0  0  0
  4 13  1  0  0  0
  5 14  1  0  0  0
  6 15  1  0  0  0
  9 16  1  0  0  0
  9 17  1  0  0  0
  9 18  1  0  0  0
M  END
