CIP:rSrR;BB:P-16.2.4.4, P-16.5.1.7, P-93.4.2.1.1
__Jmol-14_05291700453D 1   1.00000     0.00000     0
Jmol version 14.17.2  2017-05-27 15:31 EXTRACT: ({0:41})
 42 43  0  0  0  0              1 V2000
   5.15134  -1.73603   0.03916 P   0  0  0  0  0  0
   3.77142  -0.87400  -0.87794 C   0  0  0  0  0  0
   3.60933   0.61492  -0.50988 C   0  0  0  0  0  0
   2.22435   1.11630  -0.15749 C   0  0  0  0  0  0
   1.06674   0.47815  -0.90928 C   0  0  0  0  0  0
   1.15363  -1.05143  -0.90624 C   0  0  0  0  0  0
   2.51024  -1.68923  -1.20758 C   0  0  0  0  0  0
   0.87349   1.08088  -2.30345 C   0  0  0  0  0  0
   6.58015  -0.78726  -0.75994 C   0  0  0  0  0  0
   7.76454  -1.67836  -1.19939 C   0  0  0  0  0  0
   9.15663  -1.15277  -0.86747 C   0  0  0  0  0  0
   9.26729   0.37023  -0.85533 C   0  0  0  0  0  0
   8.31351   0.91655   0.19757 C   0  0  0  0  0  0
   6.86381   0.58199  -0.09724 C   0  0  0  0  0  0
   9.03677   1.01121  -2.23096 C   0  0  0  0  0  0
   5.06552  -1.05379   1.27856 H   0  0  0  0  0  0
   4.26691  -0.88247  -1.83873 H   0  0  0  0  0  0
   3.98878   1.20428  -1.35232 H   0  0  0  0  0  0
   4.24193   0.89431   0.33316 H   0  0  0  0  0  0
   2.21702   2.20457  -0.29605 H   0  0  0  0  0  0
   2.06938   0.95258   0.91541 H   0  0  0  0  0  0
   0.15808   0.74105  -0.35975 H   0  0  0  0  0  0
   0.42658  -1.45910  -1.61688 H   0  0  0  0  0  0
   0.84069  -1.40568   0.08188 H   0  0  0  0  0  0
   2.54567  -2.68681  -0.76204 H   0  0  0  0  0  0
   2.52704  -1.87562  -2.28694 H   0  0  0  0  0  0
  -0.06928   0.73260  -2.73633 H   0  0  0  0  0  0
   1.68322   0.82299  -2.98856 H   0  0  0  0  0  0
   0.81034   2.17190  -2.24539 H   0  0  0  0  0  0
   6.16874  -0.50633  -1.73077 H   0  0  0  0  0  0
   7.71303  -1.77020  -2.28969 H   0  0  0  0  0  0
   7.67154  -2.70696  -0.84136 H   0  0  0  0  0  0
   9.88190  -1.57797  -1.57198 H   0  0  0  0  0  0
   9.43883  -1.53511   0.11698 H   0  0  0  0  0  0
  10.28536   0.63165  -0.54230 H   0  0  0  0  0  0
   8.42192   2.00062   0.29152 H   0  0  0  0  0  0
   8.57548   0.49918   1.17776 H   0  0  0  0  0  0
   6.30643   0.72886   0.83022 H   0  0  0  0  0  0
   6.48770   1.35953  -0.77615 H   0  0  0  0  0  0
   9.10103   2.10025  -2.16508 H   0  0  0  0  0  0
   8.05794   0.76724  -2.66080 H   0  0  0  0  0  0
   9.79666   0.67728  -2.94149 H   0  0  0  0  0  0
  2  1  1  0  0  0
  9  1  1  0  0  0
  2  3  1  0  0  0
  2  7  1  0  0  0
  3  4  1  0  0  0
  4  5  1  0  0  0
  5  6  1  0  0  0
  5  8  1  0  0  0
  6  7  1  0  0  0
  9 10  1  0  0  0
  9 14  1  0  0  0
 10 11  1  0  0  0
 11 12  1  0  0  0
 12 13  1  0  0  0
 12 15  1  0  0  0
 13 14  1  0  0  0
  1 16  1  0  0  0
  2 17  1  0  0  0
  3 18  1  0  0  0
  3 19  1  0  0  0
  4 20  1  0  0  0
  4 21  1  0  0  0
  5 22  1  0  0  0
  6 23  1  0  0  0
  6 24  1  0  0  0
  7 25  1  0  0  0
  7 26  1  0  0  0
  8 27  1  0  0  0
  8 28  1  0  0  0
  8 29  1  0  0  0
  9 30  1  0  0  0
 10 31  1  0  0  0
 10 32  1  0  0  0
 11 33  1  0  0  0
 11 34  1  0  0  0
 12 35  1  0  0  0
 13 36  1  0  0  0
 13 37  1  0  0  0
 14 38  1  0  0  0
 14 39  1  0  0  0
 15 40  1  0  0  0
 15 41  1  0  0  0
 15 42  1  0  0  0
M  END
