CIP:3Z 4Z 5E 6E; BB:P-93.4.2.1.2;
__Jmol-14_05301721583D 1   1.00000     0.00000     0
Jmol version 14.17.2  2017-05-27 15:31 EXTRACT: ({0:21})
 22 21  0  0  0  0              1 V2000
  -0.02222  -2.62492   0.17309 C   0  0  0  0  0  0
   1.36343  -2.02175   0.11811 C   0  0  0  0  0  0
   1.44520  -0.52290   0.01100 C   0  0  0  0  0  0
   2.58242   0.21280  -0.01329 C   0  0  0  0  0  0
   3.97009  -0.21579   0.09020 C   0  0  0  0  0  0
   4.43336  -1.47875   0.00257 C   0  0  0  0  0  0
   5.85634  -1.92109   0.11182 C   0  0  0  0  0  0
   5.93523  -3.44644   0.16225 C   0  0  0  0  0  0
  -0.58684  -2.40960  -0.74096 H   0  0  0  0  0  0
  -0.59031  -2.26273   1.03160 H   0  0  0  0  0  0
   0.08041  -3.71288   0.25785 H   0  0  0  0  0  0
   1.83855  -2.46256  -0.75925 H   0  0  0  0  0  0
   1.89272  -2.34944   1.02286 H   0  0  0  0  0  0
   0.50384   0.00849  -0.06639 H   0  0  0  0  0  0
   2.46655   1.28774  -0.10070 H   0  0  0  0  0  0
   4.68741   0.58510   0.22843 H   0  0  0  0  0  0
   3.75416  -2.29372  -0.16200 H   0  0  0  0  0  0
   6.31755  -1.50520   1.00939 H   0  0  0  0  0  0
   6.41782  -1.56644  -0.75986 H   0  0  0  0  0  0
   5.49479  -3.89852  -0.73214 H   0  0  0  0  0  0
   5.39904  -3.84441   1.03416 H   0  0  0  0  0  0
   6.97305  -3.77796   0.22686 H   0  0  0  0  0  0
  1  2  1  0  0  0
  2  3  1  0  0  0
  3  4  2  0  0  0
  4  5  1  0  0  0
  5  6  2  0  0  0
  6  7  1  0  0  0
  7  8  1  0  0  0
  1  9  1  0  0  0
  1 10  1  0  0  0
  1 11  1  0  0  0
  2 12  1  0  0  0
  2 13  1  0  0  0
  3 14  1  0  0  0
  4 15  1  0  0  0
  5 16  1  0  0  0
  6 17  1  0  0  0
  7 18  1  0  0  0
  7 19  1  0  0  0
  8 20  1  0  0  0
  8 21  1  0  0  0
  8 22  1  0  0  0
M  END
