CIP:2R 4R; BB:P-92.1.4.1;
__Jmol-14_05301721583D 1   1.00000     0.00000     0
Jmol version 14.17.2  2017-05-27 15:31 EXTRACT: ({0:21})
 22 21  0  0  0  0              1 V2000
   0.26165   0.00575  -0.02480 C   0  0  0  0  0  0
  -0.98351   0.88374   0.01936 C   0  0  0  0  0  0
  -2.26519   0.03839  -0.01334 C   0  0  0  0  0  0
  -3.54593   0.89094   0.00122 C   0  0  0  0  0  0
  -4.79683   0.01008   0.00337 C   0  0  0  0  0  0
  -6.07108   0.84347  -0.05390 C   0  0  0  0  0  0
  -0.97558   1.77108  -1.10403 O   0  0  0  0  0  0
  -3.60663   1.74521  -1.14065 O   0  0  0  0  0  0
  -7.50763  -0.19937   0.09337 Cl  0  0  0  0  0  0
   1.16673   0.61821  -0.02659 H   0  0  0  0  0  0
   0.28849  -0.59472  -0.94056 H   0  0  0  0  0  0
   0.30201  -0.67046   0.83527 H   0  0  0  0  0  0
  -0.96752   1.49909   0.92455 H   0  0  0  0  0  0
  -2.26899  -0.65084   0.83919 H   0  0  0  0  0  0
  -2.26175  -0.56800  -0.92590 H   0  0  0  0  0  0
  -3.54872   1.53169   0.89107 H   0  0  0  0  0  0
  -4.79644  -0.62610   0.89706 H   0  0  0  0  0  0
  -4.77719  -0.65907  -0.86648 H   0  0  0  0  0  0
  -6.15703   1.38643  -1.00216 H   0  0  0  0  0  0
  -6.10557   1.57193   0.76302 H   0  0  0  0  0  0
  -0.13806   2.26961  -1.08391 H   0  0  0  0  0  0
  -2.68546   2.01705  -1.34753 H   0  0  0  0  0  0
  1  2  1  0  0  0
  2  3  1  0  0  0
  2  7  1  0  0  0
  3  4  1  0  0  0
  4  5  1  0  0  0
  4  8  1  0  0  0
  5  6  1  0  0  0
  6  9  1  0  0  0
  1 10  1  0  0  0
  1 11  1  0  0  0
  1 12  1  0  0  0
  2 13  1  0  0  0
  3 14  1  0  0  0
  3 15  1  0  0  0
  4 16  1  0  0  0
  5 17  1  0  0  0
  5 18  1  0  0  0
  6 19  1  0  0  0
  6 20  1  0  0  0
  7 21  1  0  0  0
  8 22  1  0  0  0
M  END
