CIP:2R 3R 5R 6R; BB:P-93.4.1.2;
__Jmol-14_05301721583D 1   1.00000     0.00000     0
Jmol version 14.17.2  2017-05-27 15:31 EXTRACT: ({0:22})
 23 22  0  0  0  0              1 V2000
   8.33118  -0.13256  -2.60356 C   0  0  0  0  0  0
   7.21725  -0.16828  -1.56613 C   0  0  0  0  0  0
   5.86089   0.24454  -2.17904 C   0  0  0  0  0  0
   4.71676   0.37884  -1.13721 C   0  0  0  0  0  0
   3.45386   1.04046  -1.77996 C   0  0  0  0  0  0
   2.07278   0.51357  -1.32755 C   0  0  0  0  0  0
   0.89947   1.43457  -1.65152 C   0  0  0  0  0  0
   8.25681   0.42072  -3.68541 O   0  0  0  0  0  0
   9.46262  -0.77488  -2.19492 O   0  0  0  0  0  0
   0.00440   1.65399  -0.85727 O   0  0  0  0  0  0
   0.87141   1.96972  -2.90891 O   0  0  0  0  0  0
   7.73798   0.91648  -0.22835 Cl  0  0  0  0  0  0
   5.38251  -0.94801  -3.45624 Cl  0  0  0  0  0  0
   4.43695  -1.18402  -0.27419 Cl  0  0  0  0  0  0
   3.61015   2.81782  -1.52478 Cl  0  0  0  0  0  0
   1.69211  -1.05215  -2.12982 Cl  0  0  0  0  0  0
   7.16320  -1.18178  -1.16417 H   0  0  0  0  0  0
   5.97875   1.19906  -2.69756 H   0  0  0  0  0  0
   5.04731   1.02954  -0.32899 H   0  0  0  0  0  0
   3.49992   0.94704  -2.87072 H   0  0  0  0  0  0
   2.05956   0.35671  -0.24025 H   0  0  0  0  0  0
   9.43580  -1.10002  -1.27418 H   0  0  0  0  0  0
   1.59383   1.72643  -3.51309 H   0  0  0  0  0  0
  1  2  1  0  0  0
  1  9  1  0  0  0
  1  8  2  0  0  0
  2  3  1  0  0  0
  2 12  1  0  0  0
  3  4  1  0  0  0
  3 13  1  0  0  0
  4  5  1  0  0  0
  4 14  1  0  0  0
  5  6  1  0  0  0
  5 15  1  0  0  0
  6  7  1  0  0  0
  6 16  1  0  0  0
  7 11  1  0  0  0
  7 10  2  0  0  0
  2 17  1  0  0  0
  3 18  1  0  0  0
  4 19  1  0  0  0
  5 20  1  0  0  0
  6 21  1  0  0  0
  9 22  1  0  0  0
 11 23  1  0  0  0
M  END
