CIP:1S; BB:P-92.2.1.3;
__Jmol-14_05301721583D 1   1.00000     0.00000     0
Jmol version 14.17.2  2017-05-27 15:31 EXTRACT: ({0:22})
 23 24  0  0  0  0              1 V2000
   3.04985   0.44555  -0.39857 C   0  0  0  0  0  0
   2.72558  -0.94007  -0.34107 O   0  0  0  0  0  0
   1.95424   1.19288  -1.16597 C   0  0  0  0  0  0
   2.07479   2.72855  -1.19483 C   0  0  0  0  0  0
   0.66970   2.85477  -0.60350 C   0  0  0  0  0  0
   0.56218   1.32830  -0.52246 C   0  0  0  0  0  0
   4.35426   0.57293  -1.13942 C   0  0  0  0  0  0
   5.68644   0.21262  -0.54373 C   0  0  0  0  0  0
   5.33060   1.65450  -0.75564 C   0  0  0  0  0  0
   3.13826   0.81230   0.63385 H   0  0  0  0  0  0
   1.78296  -1.02264  -0.10969 H   0  0  0  0  0  0
   1.85849   0.78754  -2.18270 H   0  0  0  0  0  0
   2.18754   3.14972  -2.19694 H   0  0  0  0  0  0
   2.85098   3.15740  -0.54756 H   0  0  0  0  0  0
  -0.05603   3.32229  -1.27926 H   0  0  0  0  0  0
   0.63174   3.36217   0.36146 H   0  0  0  0  0  0
   0.48077   0.94675   0.50200 H   0  0  0  0  0  0
  -0.25084   0.90450  -1.11820 H   0  0  0  0  0  0
   4.23548   0.31995  -2.18918 H   0  0  0  0  0  0
   6.42684  -0.22715  -1.20548 H   0  0  0  0  0  0
   5.71267  -0.17665   0.46814 H   0  0  0  0  0  0
   5.14352   2.25246   0.13262 H   0  0  0  0  0  0
   5.80989   2.20072  -1.56075 H   0  0  0  0  0  0
  1  2  1  0  0  0
  1  3  1  0  0  0
  1  7  1  0  0  0
  3  4  1  0  0  0
  3  6  1  0  0  0
  4  5  1  0  0  0
  5  6  1  0  0  0
  7  8  1  0  0  0
  7  9  1  0  0  0
  8  9  1  0  0  0
  1 10  1  0  0  0
  2 11  1  0  0  0
  3 12  1  0  0  0
  4 13  1  0  0  0
  4 14  1  0  0  0
  5 15  1  0  0  0
  5 16  1  0  0  0
  6 17  1  0  0  0
  6 18  1  0  0  0
  7 19  1  0  0  0
  8 20  1  0  0  0
  8 21  1  0  0  0
  9 22  1  0  0  0
  9 23  1  0  0  0
M  END
