CIP:R;BB:P-16.2.4.4, P-16.5.1.7, P-93.4.2.1.1
__Jmol-14_05291700443D 1   1.00000     0.00000     0
Jmol version 14.17.2  2017-05-27 15:31 EXTRACT: ({0:18})
 19 17  0  0  0  0              1 V2000
   0.86568  -2.76018   1.25207 Na  0  3  0  0  0  0
   1.10886  -0.18942  -0.00384 P   0  0  0  0  0  0
   1.03633   1.26385   1.26130 S   0  0  0  0  0  0
   0.10754  -1.29154   0.24043 O   0  5  0  0  0  0
   0.99522   0.26017  -1.77880 C   0  0  0  0  0  0
   2.52504  -1.01838   0.13313 O   0  0  0  0  0  0
   3.66138  -0.71564  -0.68936 C   0  0  0  0  0  0
   4.67121  -1.85504  -0.60364 C   0  0  0  0  0  0
   4.29984   0.63798  -0.35120 C   0  0  0  0  0  0
   0.68250  -0.61846  -2.34355 H   0  0  0  0  0  0
   1.93239   0.62215  -2.20587 H   0  0  0  0  0  0
   0.24855   1.04632  -1.92212 H   0  0  0  0  0  0
   3.32950  -0.71896  -1.72415 H   0  0  0  0  0  0
   5.31211  -1.77877   0.27766 H   0  0  0  0  0  0
   5.31656  -1.84851  -1.48576 H   0  0  0  0  0  0
   4.16766  -2.82901  -0.55390 H   0  0  0  0  0  0
   4.52422   1.18107  -1.27385 H   0  0  0  0  0  0
   5.23798   0.52626   0.19160 H   0  0  0  0  0  0
   3.66485   1.28001   0.25160 H   0  0  0  0  0  0
  2  3  2  0  0  0
  2  4  1  0  0  0
  2  5  1  0  0  0
  2  6  1  0  0  0
  6  7  1  0  0  0
  7  8  1  0  0  0
  7  9  1  0  0  0
  5 10  1  0  0  0
  5 11  1  0  0  0
  5 12  1  0  0  0
  7 13  1  0  0  0
  8 14  1  0  0  0
  8 15  1  0  0  0
  8 16  1  0  0  0
  9 17  1  0  0  0
  9 18  1  0  0  0
  9 19  1  0  0  0
M  END
