CIP:RsRrRSS;BB:P-16.2.4.4, P-16.5.1.7, P-93.4.2.1.1
__Jmol-14_05291700433D 1   1.00000     0.00000     0
Jmol version 14.17.2  2017-05-27 15:31 EXTRACT: ({0:35})
 36 35  0  0  0  0              1 V2000
  -0.10667   1.41944  -0.52684 C   0  0  0  0  0  0
  -1.46063   0.98233   0.06481 C   0  0  0  0  0  0
  -2.70809   1.96172  -0.07215 C   0  0  0  0  0  0
  -4.06607   1.25446   0.46877 C   0  0  0  0  0  0
  -5.50168   1.74096  -0.01002 C   0  0  0  0  0  0
  -6.61370   0.70014   0.45097 C   0  0  0  0  0  0
  -7.90490   1.18303   1.12127 C   0  0  0  0  0  0
  -4.10805   1.12206   1.88475 O   0  0  0  0  0  0
  -1.17126   0.46955   1.75161 Cl  0  0  0  0  0  0
  -7.10822  -0.29337  -0.96149 Cl  0  0  0  0  0  0
  -2.47119   3.44607   0.41157 C   0  0  0  0  0  0
  -5.86016   3.27521   0.13169 C   0  0  0  0  0  0
  -1.15406   4.14703   0.11252 C   0  0  0  0  0  0
  -6.68306   3.82398  -1.36350 Cl  0  0  0  0  0  0
  -6.62556   3.86512   1.31827 C   0  0  0  0  0  0
  -2.81530   3.72520   2.14649 Cl  0  0  0  0  0  0
  -2.84535   2.04399  -1.15391 H   0  0  0  0  0  0
  -5.38992   1.60983  -1.08754 H   0  0  0  0  0  0
   0.57444   0.56730  -0.62779 H   0  0  0  0  0  0
   0.43488   2.12067   0.11305 H   0  0  0  0  0  0
  -0.21359   1.85691  -1.52048 H   0  0  0  0  0  0
  -1.71169   0.06459  -0.48003 H   0  0  0  0  0  0
  -4.00019   0.21878   0.10668 H   0  0  0  0  0  0
  -6.18065  -0.02660   1.13930 H   0  0  0  0  0  0
  -8.56875   0.34321   1.34482 H   0  0  0  0  0  0
  -8.47273   1.86875   0.48894 H   0  0  0  0  0  0
  -7.69770   1.65065   2.09029 H   0  0  0  0  0  0
  -3.21998   0.85546   2.20500 H   0  0  0  0  0  0
  -3.17329   4.06251  -0.14802 H   0  0  0  0  0  0
  -4.94698   3.83497   0.12103 H   0  0  0  0  0  0
  -0.36131   3.85491   0.81092 H   0  0  0  0  0  0
  -1.26831   5.22629   0.22480 H   0  0  0  0  0  0
  -0.82615   3.97878  -0.91891 H   0  0  0  0  0  0
  -7.70906   3.72235   1.25528 H   0  0  0  0  0  0
  -6.49632   4.95276   1.33262 H   0  0  0  0  0  0
  -6.26905   3.49124   2.28047 H   0  0  0  0  0  0
  1  2  1  0  0  0
  2  3  1  0  0  0
  2  9  1  0  0  0
  3  4  1  0  0  0
  3 11  1  0  0  0
  3 17  1  0  0  0
  4  5  1  0  0  0
  4  8  1  0  0  0
  5  6  1  0  0  0
  5 12  1  0  0  0
  5 18  1  0  0  0
  6  7  1  0  0  0
  6 10  1  0  0  0
 11 13  1  0  0  0
 11 16  1  0  0  0
 12 14  1  0  0  0
 12 15  1  0  0  0
  1 19  1  0  0  0
  1 20  1  0  0  0
  1 21  1  0  0  0
  2 22  1  0  0  0
  4 23  1  0  0  0
  6 24  1  0  0  0
  7 25  1  0  0  0
  7 26  1  0  0  0
  7 27  1  0  0  0
  8 28  1  0  0  0
 11 29  1  0  0  0
 12 30  1  0  0  0
 13 31  1  0  0  0
 13 32  1  0  0  0
 13 33  1  0  0  0
 15 34  1  0  0  0
 15 35  1  0  0  0
 15 36  1  0  0  0
M  END
