CIP:ZRZ;BB:P-16.2.4.4, P-16.5.1.7, P-93.4.2.1.1
__Jmol-14_05291700453D 1   1.00000     0.00000     0
Jmol version 14.17.2  2017-05-27 15:31 EXTRACT: ({0:21})
 22 22  0  0  0  0              1 V2000
   3.59417   0.37357  -2.30655 C   0  0  0  0  0  0
   2.82256  -0.88133  -1.92491 C   0  0  0  0  0  0
   2.93793   1.73443  -2.17930 C   0  0  0  0  0  0
   1.64815  -0.60776  -0.99909 C   0  0  0  0  0  0
   1.44981   1.79703  -1.78999 C   0  0  0  0  0  0
   0.71009   0.47503  -1.52019 C   0  0  0  0  0  0
   4.81193   0.33888  -2.78302 N   0  0  0  0  0  0
   5.27283  -0.98183  -2.88612 O   0  0  0  0  0  0
  -0.11449  -0.00682  -2.71827 C   0  0  0  0  0  0
   3.49182  -1.58045  -1.41770 H   0  0  0  0  0  0
   2.48559  -1.36025  -2.84743 H   0  0  0  0  0  0
   3.07843   2.25805  -3.12910 H   0  0  0  0  0  0
   3.52049   2.30006  -1.44107 H   0  0  0  0  0  0
   2.02775  -0.31053  -0.01668 H   0  0  0  0  0  0
   1.09471  -1.54105  -0.84935 H   0  0  0  0  0  0
   0.90907   2.39080  -2.53207 H   0  0  0  0  0  0
   1.39188   2.39584  -0.87701 H   0  0  0  0  0  0
  -0.02173   0.67625  -0.72725 H   0  0  0  0  0  0
   6.16525  -0.86208  -3.26547 H   0  0  0  0  0  0
   0.50646  -0.23941  -3.58892 H   0  0  0  0  0  0
  -0.84705   0.74541  -3.01923 H   0  0  0  0  0  0
  -0.67467  -0.91338  -2.45764 H   0  0  0  0  0  0
  1  2  1  0  0  0
  1  3  1  0  0  0
  1  7  2  0  0  0
  2  4  1  0  0  0
  3  5  1  0  0  0
  4  6  1  0  0  0
  5  6  1  0  0  0
  6  9  1  0  0  0
  7  8  1  0  0  0
  2 10  1  0  0  0
  2 11  1  0  0  0
  3 12  1  0  0  0
  3 13  1  0  0  0
  4 14  1  0  0  0
  4 15  1  0  0  0
  5 16  1  0  0  0
  5 17  1  0  0  0
  6 18  1  0  0  0
  8 19  1  0  0  0
  9 20  1  0  0  0
  9 21  1  0  0  0
  9 22  1  0  0  0
M  END
