CIP:2E 3E 4E 5E 18S 23S; BB:P-93.6;
__Jmol-14_05301721583D 1   1.00000     0.00000     0
Jmol version 14.17.2  2017-05-27 15:31 EXTRACT: ({0:48})
 49 50  0  0  0  0              1 V2000
  -9.17931   1.33559  -1.63157 O   0  0  0  0  0  0
 -10.42508   1.46717  -1.14323 C   0  0  0  0  0  0
  -8.09461   1.44751  -0.84034 C   0  0  0  0  0  0
  -7.24220   2.37761  -1.25377 C   0  0  0  0  0  0
 -11.15675   2.36767  -1.78759 C   0  0  0  0  0  0
 -12.59731   2.33069  -1.87925 C   0  0  0  0  0  0
 -13.30171   1.23182  -1.40110 C   0  0  0  0  0  0
 -13.26165   3.36548  -2.53386 C   0  0  0  0  0  0
 -14.66920   1.23428  -1.45198 C   0  0  0  0  0  0
 -14.64835   3.35001  -2.61596 C   0  0  0  0  0  0
 -15.37208   2.29345  -2.02802 C   0  0  0  0  0  0
  -5.82005   2.37088  -1.01246 C   0  0  0  0  0  0
  -5.08172   3.44406  -1.50242 C   0  0  0  0  0  0
  -5.18166   1.27495  -0.45205 C   0  0  0  0  0  0
  -3.70270   3.42815  -1.39954 C   0  0  0  0  0  0
  -3.81192   1.25958  -0.36505 C   0  0  0  0  0  0
  -3.02669   2.32338  -0.84549 C   0  0  0  0  0  0
 -16.87378   2.38309  -1.87000 C   0  0  0  0  0  0
 -17.15460   3.10093  -0.54613 C   0  0  0  0  0  0
 -17.63264   1.03429  -1.88755 C   0  0  0  0  0  0
 -17.23167  -0.04289  -1.46884 O   0  0  0  0  0  0
 -18.89250   1.13756  -2.38039 O   0  0  0  0  0  0
  -1.50148   2.31429  -0.78343 C   0  0  0  0  0  0
  -0.92741   2.57063  -2.19174 C   0  0  0  0  0  0
  -0.80829   1.06780  -0.15698 C   0  0  0  0  0  0
  -1.33139   0.03735   0.24121 O   0  0  0  0  0  0
   0.53619   1.20693  -0.03294 O   0  0  0  0  0  0
 -10.71862   0.63540  -0.50597 H   0  0  0  0  0  0
  -7.95119   0.59448  -0.18129 H   0  0  0  0  0  0
  -7.59287   3.09782  -1.98312 H   0  0  0  0  0  0
 -10.65013   3.09266  -2.41751 H   0  0  0  0  0  0
 -12.81953   0.37431  -0.95211 H   0  0  0  0  0  0
 -12.71045   4.20253  -2.96064 H   0  0  0  0  0  0
 -15.15761   0.39457  -0.97067 H   0  0  0  0  0  0
 -15.14927   4.18978  -3.08404 H   0  0  0  0  0  0
  -5.57424   4.28444  -1.98211 H   0  0  0  0  0  0
  -5.72429   0.39987  -0.09891 H   0  0  0  0  0  0
  -3.16479   4.29356  -1.77882 H   0  0  0  0  0  0
  -3.39787   0.37142   0.08113 H   0  0  0  0  0  0
 -17.25524   2.98497  -2.70686 H   0  0  0  0  0  0
 -16.76893   2.52829   0.30824 H   0  0  0  0  0  0
 -18.22722   3.23758  -0.38746 H   0  0  0  0  0  0
 -16.67978   4.08719  -0.51262 H   0  0  0  0  0  0
 -19.12944   2.03808  -2.67038 H   0  0  0  0  0  0
  -1.23016   3.15367  -0.12882 H   0  0  0  0  0  0
  -1.21593   1.77027  -2.88364 H   0  0  0  0  0  0
   0.16133   2.62208  -2.19363 H   0  0  0  0  0  0
  -1.27671   3.51235  -2.62269 H   0  0  0  0  0  0
   0.87779   2.07178  -0.32507 H   0  0  0  0  0  0
  1  2  1  0  0  0
  1  3  1  0  0  0
  2  5  2  0  0  0
  3  4  2  0  0  0
  4 12  1  0  0  0
  5  6  1  0  0  0
  6  7  1  0  0  0
  6  8  2  0  0  0
  7  9  2  0  0  0
  8 10  1  0  0  0
  9 11  1  0  0  0
 10 11  2  0  0  0
 11 18  1  0  0  0
 12 13  1  0  0  0
 12 14  2  0  0  0
 13 15  2  0  0  0
 14 16  1  0  0  0
 15 17  1  0  0  0
 16 17  2  0  0  0
 17 23  1  0  0  0
 18 19  1  0  0  0
 18 20  1  0  0  0
 20 21  2  0  0  0
 20 22  1  0  0  0
 23 24  1  0  0  0
 23 25  1  0  0  0
 25 26  2  0  0  0
 25 27  1  0  0  0
  2 28  1  0  0  0
  3 29  1  0  0  0
  4 30  1  0  0  0
  5 31  1  0  0  0
  7 32  1  0  0  0
  8 33  1  0  0  0
  9 34  1  0  0  0
 10 35  1  0  0  0
 13 36  1  0  0  0
 14 37  1  0  0  0
 15 38  1  0  0  0
 16 39  1  0  0  0
 18 40  1  0  0  0
 19 41  1  0  0  0
 19 42  1  0  0  0
 19 43  1  0  0  0
 22 44  1  0  0  0
 23 45  1  0  0  0
 24 46  1  0  0  0
 24 47  1  0  0  0
 24 48  1  0  0  0
 27 49  1  0  0  0
M  END
