CIP:RR;BB:P-16.2.4.4, P-16.5.1.7, P-93.4.2.1.1
__Jmol-14_05291700433D 1   1.00000     0.00000     0
Jmol version 14.17.2  2017-05-27 15:31 EXTRACT: ({0:21})
 22 21  0  0  0  0              1 V2000
  -0.26171  -0.00041  -0.02480 C   0  0  0  0  0  0
   0.96527  -0.90363   0.01936 C   0  0  0  0  0  0
   2.26393  -0.08461  -0.01333 C   0  0  0  0  0  0
   3.52701  -0.96312   0.00122 C   0  0  0  0  0  0
   4.79562  -0.10797   0.00337 C   0  0  0  0  0  0
   6.05260  -0.96718  -0.05390 C   0  0  0  0  0  0
   0.93923  -1.79062  -1.10403 O   0  0  0  0  0  0
   3.57026  -1.81845  -1.14065 O   0  0  0  0  0  0
   7.51013   0.04611   0.09337 Cl  0  0  0  0  0  0
  -1.17910  -0.59427  -0.02659 H   0  0  0  0  0  0
  -0.27629   0.60048  -0.94056 H   0  0  0  0  0  0
  -0.28826   0.67648   0.83527 H   0  0  0  0  0  0
   0.93672  -1.51852   0.92455 H   0  0  0  0  0  0
   2.28180   0.60440   0.83919 H   0  0  0  0  0  0
   2.27287   0.52172  -0.92589 H   0  0  0  0  0  0
   3.51672  -1.60379   0.89107 H   0  0  0  0  0  0
   4.80822   0.52808   0.89705 H   0  0  0  0  0  0
   4.78965   0.56144  -0.86648 H   0  0  0  0  0  0
   6.12745  -1.51180  -1.00215 H   0  0  0  0  0  0
   6.07222  -1.69621   0.76302 H   0  0  0  0  0  0
   0.09171  -2.27195  -1.08391 H   0  0  0  0  0  0
   2.64374  -2.07144  -1.34753 H   0  0  0  0  0  0
  1  2  1  0  0  0
  2  3  1  0  0  0
  2  7  1  0  0  0
  3  4  1  0  0  0
  4  5  1  0  0  0
  4  8  1  0  0  0
  5  6  1  0  0  0
  6  9  1  0  0  0
  1 10  1  0  0  0
  1 11  1  0  0  0
  1 12  1  0  0  0
  2 13  1  0  0  0
  3 14  1  0  0  0
  3 15  1  0  0  0
  4 16  1  0  0  0
  5 17  1  0  0  0
  5 18  1  0  0  0
  6 19  1  0  0  0
  6 20  1  0  0  0
  7 21  1  0  0  0
  8 22  1  0  0  0
M  END
