CIP:ZSZ;BB:P-16.2.4.4, P-16.5.1.7, P-93.4.2.1.1
__Jmol-14_05291700453D 1   1.00000     0.00000     0
Jmol version 14.17.2  2017-05-27 15:31 EXTRACT: ({0:21})
 22 22  0  0  0  0              1 V2000
  -4.02444  -0.96059   1.31404 C   0  0  0  0  0  0
  -4.34944   1.19773   1.77865 C   0  0  0  0  0  0
  -5.13215  -0.09174   1.83435 C   0  0  0  0  0  0
  -3.21093   0.34805   1.16254 C   0  0  0  0  0  0
  -6.38090  -0.40276   2.20490 C   0  0  0  0  0  0
  -1.86965   0.28761   1.88672 C   0  0  0  0  0  0
  -0.91912  -0.65241   1.12968 C   0  0  0  0  0  0
   0.36704   0.03171   0.71273 C   0  0  0  0  0  0
  -7.67216   0.82409   2.72314 Br  0  0  0  0  0  0
  -4.21612  -1.47098   0.36307 H   0  0  0  0  0  0
  -3.62438  -1.69126   2.02014 H   0  0  0  0  0  0
  -4.74414   1.97092   1.10613 H   0  0  0  0  0  0
  -4.11697   1.66146   2.74031 H   0  0  0  0  0  0
  -3.06191   0.62918   0.11582 H   0  0  0  0  0  0
  -6.72789  -1.42861   2.19232 H   0  0  0  0  0  0
  -1.99895  -0.06614   2.91414 H   0  0  0  0  0  0
  -1.44618   1.29740   1.96594 H   0  0  0  0  0  0
  -1.39358  -1.06129   0.22806 H   0  0  0  0  0  0
  -0.67720  -1.51466   1.76186 H   0  0  0  0  0  0
   0.95306   0.32954   1.58952 H   0  0  0  0  0  0
   0.16941   0.91990   0.11068 H   0  0  0  0  0  0
   0.98213  -0.65151   0.11562 H   0  0  0  0  0  0
  1  3  1  0  0  0
  1  4  1  0  0  0
  2  4  1  0  0  0
  2  3  1  0  0  0
  3  5  2  0  0  0
  4  6  1  0  0  0
  5  9  1  0  0  0
  6  7  1  0  0  0
  7  8  1  0  0  0
  1 10  1  0  0  0
  1 11  1  0  0  0
  2 12  1  0  0  0
  2 13  1  0  0  0
  4 14  1  0  0  0
  5 15  1  0  0  0
  6 16  1  0  0  0
  6 17  1  0  0  0
  7 18  1  0  0  0
  7 19  1  0  0  0
  8 20  1  0  0  0
  8 21  1  0  0  0
  8 22  1  0  0  0
M  END
