CIP:RSSRSR;BB:P-16.2.4.4, P-16.5.1.7, P-93.4.2.1.1
__Jmol-14_05291700453D 1   1.00000     0.00000     0
Jmol version 14.17.2  2017-05-27 15:31 EXTRACT: ({0:17})
 18 18  0  0  0  0              1 V2000
   2.36657   2.28963  -1.11946 C   0  0  0  0  0  0
   3.91967   2.31238  -1.26761 C   0  0  0  0  0  0
   4.69362   1.73723  -0.07771 C   0  0  0  0  0  0
   4.21662   0.30720   0.29842 C   0  0  0  0  0  0
   2.77826  -0.08467  -0.18060 C   0  0  0  0  0  0
   1.81975   1.11754  -0.23836 C   0  0  0  0  0  0
   1.61445   3.87663  -0.69001 Cl  0  0  0  0  0  0
   4.59665   3.89755  -1.81013 Cl  0  0  0  0  0  0
   4.59683   2.81748   1.35869 Cl  0  0  0  0  0  0
   5.45838  -0.90296  -0.18574 Cl  0  0  0  0  0  0
   2.71975  -0.93105  -1.77150 Cl  0  0  0  0  0  0
   1.39962   1.57008   1.45599 Cl  0  0  0  0  0  0
   1.99045   2.11958  -2.13095 H   0  0  0  0  0  0
   4.15447   1.65964  -2.11662 H   0  0  0  0  0  0
   5.76417   1.72507  -0.32601 H   0  0  0  0  0  0
   4.21962   0.22030   1.38731 H   0  0  0  0  0  0
   2.38626  -0.83152   0.52283 H   0  0  0  0  0  0
   0.86006   0.79927  -0.66840 H   0  0  0  0  0  0
  1  2  1  0  0  0
  1  6  1  0  0  0
  1  7  1  0  0  0
  2  3  1  0  0  0
  2  8  1  0  0  0
  3  4  1  0  0  0
  3  9  1  0  0  0
  4  5  1  0  0  0
  4 10  1  0  0  0
  5  6  1  0  0  0
  5 11  1  0  0  0
  6 12  1  0  0  0
  1 13  1  0  0  0
  2 14  1  0  0  0
  3 15  1  0  0  0
  4 16  1  0  0  0
  5 17  1  0  0  0
  6 18  1  0  0  0
M  END
