CIP:SSR;BB:P-16.2.4.4, P-16.5.1.7, P-93.4.2.1.1
__Jmol-14_05291700453D 1   1.00000     0.00000     0
Jmol version 14.17.2  2017-05-27 15:31 EXTRACT: ({0:20})
 21 21  0  0  0  0              1 V2000
  -1.77088   2.57111  -0.59082 C   0  0  0  0  0  0
  -2.37515   3.99023  -0.28020 C   0  0  0  0  0  0
  -3.89717   3.93978  -0.51247 C   0  0  0  0  0  0
  -4.22456   2.46363  -0.57881 C   0  0  0  0  0  0
  -2.97512   1.84749  -1.23776 C   0  0  0  0  0  0
  -0.61231   2.84577  -1.57763 C   0  0  0  0  0  0
  -0.19077   3.95073  -1.87102 O   0  0  0  0  0  0
  -0.04085   1.74120  -2.12564 O   0  0  0  0  0  0
  -1.18277   1.70767   0.54602 C   0  0  0  0  0  0
   0.00710   1.71391   0.80984 O   0  0  0  0  0  0
  -1.95989   0.77733   1.16432 O   0  0  0  0  0  0
  -1.95211   4.62673   1.33219 Cl  0  0  0  0  0  0
  -4.33217   4.69143  -2.08941 Cl  0  0  0  0  0  0
  -4.54234   1.86960   1.08919 Cl  0  0  0  0  0  0
  -2.00115   4.76437  -0.95381 H   0  0  0  0  0  0
  -4.47791   4.48110   0.24520 H   0  0  0  0  0  0
  -5.13836   2.23564  -1.13973 H   0  0  0  0  0  0
  -2.95018   0.75504  -1.13709 H   0  0  0  0  0  0
  -2.99677   2.03878  -2.31797 H   0  0  0  0  0  0
   0.02429   0.97975  -1.51615 H   0  0  0  0  0  0
  -2.93442   0.79956   1.05631 H   0  0  0  0  0  0
  1  2  1  0  0  0
  1  5  1  0  0  0
  1  6  1  0  0  0
  1  9  1  0  0  0
  2  3  1  0  0  0
  2 12  1  0  0  0
  3  4  1  0  0  0
  3 13  1  0  0  0
  4  5  1  0  0  0
  4 14  1  0  0  0
  6  7  2  0  0  0
  6  8  1  0  0  0
  9 10  2  0  0  0
  9 11  1  0  0  0
  2 15  1  0  0  0
  3 16  1  0  0  0
  4 17  1  0  0  0
  5 18  1  0  0  0
  5 19  1  0  0  0
  8 20  1  0  0  0
 11 21  1  0  0  0
M  END
