CIP:S;BB:P-16.2.4.4, P-16.5.1.7, P-93.4.2.1.1
__Jmol-14_05291700433D 1   1.00000     0.00000     0
Jmol version 14.17.2  2017-05-27 15:31 EXTRACT: ({0:22})
 23 24  0  0  0  0              1 V2000
  -3.09394   0.05322   0.28931 C   0  0  0  0  0  0
  -2.59685  -1.27957   0.21893 O   0  0  0  0  0  0
  -2.12871   0.91329   1.11174 C   0  0  0  0  0  0
  -2.44158   2.42095   1.16406 C   0  0  0  0  0  0
  -1.04311   2.73461   0.62950 C   0  0  0  0  0  0
  -0.74244   1.23566   0.52472 C   0  0  0  0  0  0
  -4.42970   0.00023   0.98175 C   0  0  0  0  0  0
  -5.68409  -0.50931   0.32888 C   0  0  0  0  0  0
  -5.51944   0.96039   0.58064 C   0  0  0  0  0  0
  -3.19056   0.42972  -0.73886 H   0  0  0  0  0  0
  -1.64364  -1.23885   0.02244 H   0  0  0  0  0  0
  -2.01942   0.49980   2.12381 H   0  0  0  0  0  0
  -2.64198   2.80170   2.16864 H   0  0  0  0  0  0
  -3.24169   2.76460   0.49543 H   0  0  0  0  0  0
  -0.40629   3.27319   1.34106 H   0  0  0  0  0  0
  -1.03447   3.26480  -0.32385 H   0  0  0  0  0  0
  -0.57727   0.89082  -0.50267 H   0  0  0  0  0  0
   0.09541   0.90279   1.14337 H   0  0  0  0  0  0
  -4.31782  -0.26002   2.03050 H   0  0  0  0  0  0
  -6.38680  -1.05289   0.95356 H   0  0  0  0  0  0
  -5.62514  -0.87549  -0.69021 H   0  0  0  0  0  0
  -5.37703   1.59722  -0.28868 H   0  0  0  0  0  0
  -6.09187   1.42409   1.37663 H   0  0  0  0  0  0
  1  2  1  0  0  0
  1  3  1  0  0  0
  1  7  1  0  0  0
  3  4  1  0  0  0
  3  6  1  0  0  0
  4  5  1  0  0  0
  5  6  1  0  0  0
  7  8  1  0  0  0
  7  9  1  0  0  0
  8  9  1  0  0  0
  1 10  1  0  0  0
  2 11  1  0  0  0
  3 12  1  0  0  0
  4 13  1  0  0  0
  4 14  1  0  0  0
  5 15  1  0  0  0
  5 16  1  0  0  0
  6 17  1  0  0  0
  6 18  1  0  0  0
  7 19  1  0  0  0
  8 20  1  0  0  0
  8 21  1  0  0  0
  9 22  1  0  0  0
  9 23  1  0  0  0
M  END
