CIP:2R 3R; BB:P-93.1.3;
__Jmol-14_05301721583D 1   1.00000     0.00000     0
Jmol version 14.17.2  2017-05-27 15:31 EXTRACT: ({0:14})
 15 14  0  0  0  0              1 V2000
  -3.78008   1.08391   0.28304 C   0  0  0  0  0  0
  -2.57994   1.96634   0.60975 C   0  0  0  0  0  0
  -1.23937   1.21602   0.41520 C   0  0  0  0  0  0
  -0.07349   2.17214   0.18431 C   0  0  0  0  0  0
  -2.71057   2.50871   1.93174 O   0  0  0  0  0  0
  -0.81088   0.04164   1.95592 Br  0  0  0  0  0  0
  -4.71341   1.63162   0.41683 H   0  0  0  0  0  0
  -3.83022   0.20897   0.93887 H   0  0  0  0  0  0
  -3.73486   0.73410  -0.75550 H   0  0  0  0  0  0
  -2.60798   2.82130  -0.07734 H   0  0  0  0  0  0
  -1.29789   0.53791  -0.44038 H   0  0  0  0  0  0
   0.87925   1.64291   0.14488 H   0  0  0  0  0  0
  -0.00520   2.93302   0.96919 H   0  0  0  0  0  0
  -0.20028   2.68895  -0.77346 H   0  0  0  0  0  0
  -3.51213   3.05488   1.96442 H   0  0  0  0  0  0
  1  2  1  0  0  0
  2  3  1  0  0  0
  2  5  1  0  0  0
  3  4  1  0  0  0
  3  6  1  0  0  0
  1  7  1  0  0  0
  1  8  1  0  0  0
  1  9  1  0  0  0
  2 10  1  0  0  0
  3 11  1  0  0  0
  4 12  1  0  0  0
  4 13  1  0  0  0
  4 14  1  0  0  0
  5 15  1  0  0  0
M  END
