CIP:ZZZZ;BB:P-16.2.4.4, P-16.5.1.7, P-93.4.2.1.1
__Jmol-14_05291700463D 1   1.00000     0.00000     0
Jmol version 14.17.2  2017-05-27 15:31 EXTRACT: ({0:30})
 31 33  0  0  0  0              1 V2000
  -0.89017  -4.13875   2.50534 C   0  0  0  0  0  0
   0.28190  -4.79427   1.94183 C   0  0  0  0  0  0
  -1.10601  -2.86348   2.07834 C   0  0  0  0  0  0
   1.31567  -4.07261   1.49642 C   0  0  0  0  0  0
   0.07883  -2.05393   1.74230 C   0  0  0  0  0  0
   1.29891  -2.63169   1.63477 C   0  0  0  0  0  0
  -1.55357  -4.75662   3.65643 C   0  0  0  0  0  0
   2.50861  -1.88269   1.96189 C   0  0  0  0  0  0
  -2.43728  -2.14297   2.07610 C   0  0  0  0  0  0
  -2.79781  -1.45681   1.13679 O   0  0  0  0  0  0
  -3.20137  -2.29624   3.18687 O   0  0  0  0  0  0
   3.09821  -1.93723   3.18756 C   0  0  0  0  0  0
  -0.97839  -4.79278   4.88639 C   0  0  0  0  0  0
   0.33213  -4.20575   5.17011 C   0  0  0  0  0  0
   1.59094  -4.87273   4.85719 C   0  0  0  0  0  0
   0.39870  -2.88943   5.43866 C   0  0  0  0  0  0
   2.65477  -4.16394   4.43913 C   0  0  0  0  0  0
   1.54132  -2.11074   4.98769 C   0  0  0  0  0  0
   2.53647  -2.71002   4.29399 C   0  0  0  0  0  0
   4.26949  -4.99047   3.98726 Br  0  0  0  0  0  0
   0.31283  -5.88043   1.91397 H   0  0  0  0  0  0
   2.21120  -4.55265   1.10987 H   0  0  0  0  0  0
  -0.01342  -0.98316   1.88183 H   0  0  0  0  0  0
  -2.52402  -5.22318   3.48499 H   0  0  0  0  0  0
   2.94872  -1.28721   1.17186 H   0  0  0  0  0  0
  -2.73313  -2.74410   3.90800 H   0  0  0  0  0  0
   4.01019  -1.38697   3.38028 H   0  0  0  0  0  0
  -1.48058  -5.28111   5.71407 H   0  0  0  0  0  0
   1.62483  -5.95739   4.92863 H   0  0  0  0  0  0
  -0.49896  -2.31353   5.64871 H   0  0  0  0  0  0
   1.36403  -1.04723   4.88408 H   0  0  0  0  0  0
  1  2  1  0  0  0
  1  3  2  0  0  0
  1  7  1  0  0  0
  2  4  2  0  0  0
  3  5  1  0  0  0
  3  9  1  0  0  0
  6  4  1  0  0  0
  5  6  2  0  0  0
  6  8  1  0  0  0
  7 13  2  0  0  0
  8 12  2  0  0  0
  9 10  2  0  0  0
  9 11  1  0  0  0
 12 19  1  0  0  0
 13 14  1  0  0  0
 14 15  1  0  0  0
 14 16  2  0  0  0
 15 17  2  0  0  0
 16 18  1  0  0  0
 19 17  1  0  0  0
 17 20  1  0  0  0
 18 19  2  0  0  0
  2 21  1  0  0  0
  4 22  1  0  0  0
  5 23  1  0  0  0
  7 24  1  0  0  0
  8 25  1  0  0  0
 11 26  1  0  0  0
 12 27  1  0  0  0
 13 28  1  0  0  0
 15 29  1  0  0  0
 16 30  1  0  0  0
 18 31  1  0  0  0
M  END
