CIP:RR;BB:P-16.2.4.4, P-16.5.1.7, P-93.4.2.1.1
__Jmol-14_05291700443D 1   1.00000     0.00000     0
Jmol version 14.17.2  2017-05-27 15:31 EXTRACT: ({0:13})
 14 13  0  0  0  0              1 V2000
   1.09016   1.62912  -0.30136 C   0  0  0  0  0  0
  -0.41098   1.58682  -0.02683 C   0  0  0  0  0  0
  -1.05178   2.99512  -0.00211 C   0  0  0  0  0  0
  -2.57453   2.95520  -0.06481 C   0  0  0  0  0  0
  -0.72875   0.64209   1.46991 Cl  0  0  0  0  0  0
  -0.53481   3.98071   1.41224 Cl  0  0  0  0  0  0
  -0.70389   3.55152  -0.88062 H   1  0  0  0  0  0
   1.53088   0.63091  -0.27144 H   0  0  0  0  0  0
   1.62463   2.25295   0.42443 H   0  0  0  0  0  0
   1.28256   2.04245  -1.29460 H   0  0  0  0  0  0
  -0.87300   1.00618  -0.83476 H   0  0  0  0  0  0
  -2.90427   2.46557  -0.98911 H   0  0  0  0  0  0
  -2.99867   3.96057  -0.06225 H   0  0  0  0  0  0
  -3.01080   2.40546   0.77650 H   0  0  0  0  0  0
  1  2  1  0  0  0
  2  3  1  0  0  0
  2  5  1  0  0  0
  3  4  1  0  0  0
  3  6  1  0  0  0
  3  7  1  0  0  0
  1  8  1  0  0  0
  1  9  1  0  0  0
  1 10  1  0  0  0
  2 11  1  0  0  0
  4 12  1  0  0  0
  4 13  1  0  0  0
  4 14  1  0  0  0
M  END
