CIP:SS;BB:P-16.2.4.4, P-16.5.1.7, P-93.4.2.1.1
__Jmol-14_05291700443D 1   1.00000     0.00000     0
Jmol version 14.17.2  2017-05-27 15:31 EXTRACT: ({0:31})
 32 31  0  0  0  0              1 V2000
   6.00629   0.72668   0.36303 C   0  0  0  0  0  0
   5.81293  -0.40653   0.79262 O   0  0  0  0  0  0
   7.22650   1.28833   0.14316 O   0  0  0  0  0  0
   4.94439   1.67574  -0.12255 C   0  0  0  0  0  0
   3.55361   1.11400   0.16045 C   0  0  0  0  0  0
   1.07260   1.27948  -0.10259 C   0  0  0  0  0  0
   2.42082   1.86671  -0.54571 C   0  0  0  0  0  0
  -0.13096   1.99114  -0.69900 C   0  0  0  0  0  0
   2.60392   1.74784  -2.33114 Cl  0  0  0  0  0  0
   8.24501  -0.12314  -1.48635 C   0  0  0  0  0  0
   8.30961   0.36781  -0.03816 C   0  0  0  0  0  0
   9.65278   1.06525   0.24868 C   0  0  0  0  0  0
   9.58948   2.58885   0.31934 C   0  0  0  0  0  0
   5.11060   1.80278  -1.19807 H   0  0  0  0  0  0
   5.07183   2.65001   0.36529 H   0  0  0  0  0  0
   3.39096   1.14188   1.24162 H   0  0  0  0  0  0
   3.51039   0.05769  -0.12091 H   0  0  0  0  0  0
   0.99768   1.34425   0.99090 H   0  0  0  0  0  0
   1.02004   0.21592  -0.35130 H   0  0  0  0  0  0
   2.46835   2.92934  -0.29228 H   0  0  0  0  0  0
  -0.18755   1.85369  -1.78464 H   0  0  0  0  0  0
  -0.10079   3.06055  -0.48786 H   0  0  0  0  0  0
  -1.05435   1.58647  -0.27160 H   0  0  0  0  0  0
   9.04449  -0.83774  -1.70797 H   0  0  0  0  0  0
   8.31751   0.71370  -2.18595 H   0  0  0  0  0  0
   7.28694  -0.61569  -1.69416 H   0  0  0  0  0  0
   8.21597  -0.49353   0.63966 H   0  0  0  0  0  0
  10.39998   0.76446  -0.48887 H   0  0  0  0  0  0
  10.03729   0.70471   1.20514 H   0  0  0  0  0  0
   9.16299   2.91226   1.27223 H   0  0  0  0  0  0
   8.99527   3.01573  -0.49164 H   0  0  0  0  0  0
  10.59883   3.00920   0.25167 H   0  0  0  0  0  0
  1  2  2  0  0  0
  1  3  1  0  0  0
  1  4  1  0  0  0
  3 11  1  0  0  0
  4  5  1  0  0  0
  5  7  1  0  0  0
  6  7  1  0  0  0
  6  8  1  0  0  0
  7  9  1  0  0  0
 11 10  1  0  0  0
 11 12  1  0  0  0
 12 13  1  0  0  0
  4 14  1  0  0  0
  4 15  1  0  0  0
  5 16  1  0  0  0
  5 17  1  0  0  0
  6 18  1  0  0  0
  6 19  1  0  0  0
  7 20  1  0  0  0
  8 21  1  0  0  0
  8 22  1  0  0  0
  8 23  1  0  0  0
 10 24  1  0  0  0
 10 25  1  0  0  0
 10 26  1  0  0  0
 11 27  1  0  0  0
 12 28  1  0  0  0
 12 29  1  0  0  0
 13 30  1  0  0  0
 13 31  1  0  0  0
 13 32  1  0  0  0
M  END
