CIP:1P 7P; BB:P-93.5.7.1;
__Jmol-14_05301721583D 1   1.00000     0.00000     0
Jmol version 14.17.2  2017-05-27 15:31 EXTRACT: ({0:34})
 35 36  0  0  0  0              1 V2000
  -3.30074  -4.47705  -0.27725 C   0  0  0  0  0  0
  -3.88066  -5.84191  -0.68374 C   0  0  0  0  0  0
  -4.23200  -3.66855   0.30571 C   0  0  0  0  0  0
  -5.18300  -6.11876  -0.50930 C   0  0  0  0  0  0
  -5.67643  -3.95516   0.27511 C   0  0  0  0  0  0
  -6.10278  -5.19003   0.03367 C   0  0  0  0  0  0
  -1.83196  -3.99432  -0.39932 C   0  0  0  0  0  0
  -1.41483  -2.69496  -0.67421 C   0  0  0  0  0  0
  -0.63964  -4.91938  -0.21564 C   0  0  0  0  0  0
  -0.00819  -2.30350  -0.88590 C   0  0  0  0  0  0
   0.64408  -4.52256  -0.38725 C   0  0  0  0  0  0
   0.98473  -3.19135  -0.76834 C   0  0  0  0  0  0
  -2.34592  -1.54378  -0.79604 N   0  3  0  0  0  0
  -1.98642  -0.48429  -0.26496 O   0  5  0  0  0  0
  -3.38824  -1.67684  -1.43528 O   0  0  0  0  0  0
  -0.65004  -6.35371   0.25276 C   0  0  0  0  0  0
   0.23971  -7.15818   0.00470 O   0  0  0  0  0  0
  -1.66603  -6.68117   1.07397 O   0  0  0  0  0  0
  -3.03264  -6.85876  -1.16354 O   0  0  0  0  0  0
  -6.68132  -2.99606   0.23939 O   0  0  0  0  0  0
  -3.35578  -8.21895  -0.65860 C   0  0  0  0  0  0
  -6.43902  -1.59166   0.27890 C   0  0  0  0  0  0
  -3.95781  -2.75036   0.81402 H   0  0  0  0  0  0
  -5.65235  -7.02654  -0.87083 H   0  0  0  0  0  0
  -7.16043  -5.41787  -0.01872 H   0  0  0  0  0  0
   0.22920  -1.28395  -1.17640 H   0  0  0  0  0  0
   1.49633  -5.18665  -0.22951 H   0  0  0  0  0  0
   2.02282  -2.92553  -0.94560 H   0  0  0  0  0  0
  -2.30902  -5.97183   1.24053 H   0  0  0  0  0  0
  -3.11726  -8.98947  -1.38815 H   0  0  0  0  0  0
  -4.39961  -8.40404  -0.39837 H   0  0  0  0  0  0
  -2.78464  -8.45351   0.23676 H   0  0  0  0  0  0
  -6.96214  -1.12865  -0.56681 H   0  0  0  0  0  0
  -5.38884  -1.30224   0.24046 H   0  0  0  0  0  0
  -6.89134  -1.22546   1.20076 H   0  0  0  0  0  0
  1  2  1  0  0  0
  1  3  2  0  0  0
  1  7  1  0  0  0
  2  4  2  0  0  0
  2 19  1  0  0  0
  3  5  1  0  0  0
  4  6  1  0  0  0
  5  6  2  0  0  0
  5 20  1  0  0  0
  7  8  2  0  0  0
  7  9  1  0  0  0
  8 10  1  0  0  0
  8 13  1  0  0  0
  9 11  2  0  0  0
  9 16  1  0  0  0
 10 12  2  0  0  0
 11 12  1  0  0  0
 13 14  1  0  0  0
 13 15  2  0  0  0
 16 17  2  0  0  0
 16 18  1  0  0  0
 19 21  1  0  0  0
 20 22  1  0  0  0
  3 23  1  0  0  0
  4 24  1  0  0  0
  6 25  1  0  0  0
 10 26  1  0  0  0
 11 27  1  0  0  0
 12 28  1  0  0  0
 18 29  1  0  0  0
 21 30  1  0  0  0
 21 31  1  0  0  0
 21 32  1  0  0  0
 22 33  1  0  0  0
 22 34  1  0  0  0
 22 35  1  0  0  0
M  END
