CIP:R;BB:P-16.2.4.4, P-16.5.1.7, P-93.4.2.1.1
__Jmol-14_05291700433D 1   1.00000     0.00000     0
Jmol version 14.17.2  2017-05-27 15:31 EXTRACT: ({0:10})
 11 10  0  0  0  0              1 V2000
   4.04622  -1.90456  -2.47247 C   0  0  0  0  0  0
   3.09902  -0.96852  -1.80969 C   0  0  0  0  0  0
   1.88151  -1.65928  -1.27513 C   0  0  0  0  0  0
   0.63301  -1.17705  -1.42030 C   0  0  0  0  0  0
   4.84395  -2.57904  -2.97443 N   0  0  0  0  0  0
   3.68869  -0.32418  -0.67951 O   0  0  0  0  0  0
   2.82211  -0.18573  -2.51993 H   0  0  0  0  0  0
   2.03063  -2.55654  -0.68531 H   0  0  0  0  0  0
   0.43682  -0.26039  -1.96411 H   0  0  0  0  0  0
   4.65195  -0.39807  -0.75890 H   0  0  0  0  0  0
  -0.21452  -1.66727  -0.95535 H   0  0  0  0  0  0
  1  2  1  0  0  0
  1  5  3  0  0  0
  2  3  1  0  0  0
  2  6  1  0  0  0
  3  4  2  0  0  0
  2  7  1  0  0  0
  3  8  1  0  0  0
  4  9  1  0  0  0
  6 10  1  0  0  0
 11  4  1  0  0  0
M  END
