CIP:1R 2S 4S; BB:P-93.5.1.3.1;
__Jmol-14_05301721583D 1   1.00000     0.00000     0
Jmol version 14.17.2  2017-05-27 15:31 EXTRACT: ({0:17})
 18 18  0  0  0  0              1 V2000
   1.69964   0.60351  -0.49152 C   0  0  0  0  0  0
   3.26607   0.61390  -0.34656 C   0  0  0  0  0  0
   3.87806   1.91559   0.18912 C   0  0  0  0  0  0
   3.13939   3.18693  -0.20357 C   0  0  0  0  0  0
   1.67935   3.13783   0.22449 C   0  0  0  0  0  0
   0.91643   1.92182  -0.28741 C   0  0  0  0  0  0
   0.98909  -0.27213  -2.13104 Br  0  0  0  0  0  0
   4.32189   0.02003  -1.92898 Br  0  0  0  0  0  0
   3.27781   3.57323  -2.13499 Br  0  0  0  0  0  0
   1.33762  -0.08589   0.27585 H   0  0  0  0  0  0
   3.52608  -0.17524   0.36381 H   0  0  0  0  0  0
   4.94055   2.00202  -0.07169 H   0  0  0  0  0  0
   3.85906   1.85871   1.28589 H   0  0  0  0  0  0
   3.62427   4.04968   0.26895 H   0  0  0  0  0  0
   1.15557   4.04972  -0.07736 H   0  0  0  0  0  0
   1.64823   3.12839   1.32114 H   0  0  0  0  0  0
   0.10049   1.72689   0.42122 H   0  0  0  0  0  0
   0.40034   2.22333  -1.20532 H   0  0  0  0  0  0
  1  2  1  0  0  0
  1  6  1  0  0  0
  1  7  1  0  0  0
  2  3  1  0  0  0
  2  8  1  0  0  0
  3  4  1  0  0  0
  4  5  1  0  0  0
  4  9  1  0  0  0
  5  6  1  0  0  0
  1 10  1  0  0  0
  2 11  1  0  0  0
  3 12  1  0  0  0
  3 13  1  0  0  0
  4 14  1  0  0  0
  5 15  1  0  0  0
  5 16  1  0  0  0
  6 17  1  0  0  0
  6 18  1  0  0  0
M  END
