CIP:RS;BB:P-16.2.4.4, P-16.5.1.7, P-93.4.2.1.1
__Jmol-14_05291700433D 1   1.00000     0.00000     0
Jmol version 14.17.2  2017-05-27 15:31 EXTRACT: ({0:43})
 44 46  0  0  0  0              1 V2000
   2.62892  -2.40671   4.49903 C   0  0  0  0  0  0
   3.33903  -1.12613   4.35328 C   0  0  0  0  0  0
   1.33833  -2.43717   4.08926 C   0  0  0  0  0  0
   2.62157  -0.01093   4.65142 C   0  0  0  0  0  0
   0.65645  -1.20226   3.75205 C   0  0  0  0  0  0
   1.20674  -0.06050   4.22731 C   0  0  0  0  0  0
   4.66095  -1.12790   3.56794 C   0  0  0  0  0  0
  -0.55253  -1.24955   2.81769 C   0  0  0  0  0  0
   2.79898   1.22702   1.47096 C   0  0  0  0  0  0
   3.52314  -0.04127   1.46269 C   0  0  0  0  0  0
   1.47269   1.23663   1.23596 C   0  0  0  0  0  0
   2.95700  -1.08549   0.82499 C   0  0  0  0  0  0
   0.80257  -0.03494   1.00317 C   0  0  0  0  0  0
   1.52914  -1.07891   0.56959 C   0  0  0  0  0  0
   4.78117  -0.20957   2.29551 C   0  0  0  0  0  0
  -0.56499  -0.23298   1.63018 C   0  0  0  0  0  0
   3.26692  -3.56010   5.28861 C   0  0  0  0  0  0
   4.55400  -3.24565   6.06728 C   0  0  0  0  0  0
   1.99233  -4.22553   6.66401 Br  0  0  0  0  0  0
   3.15777   1.37329   5.01718 C   0  0  0  0  0  0
   4.63838   1.50485   5.38727 C   0  0  0  0  0  0
   2.15826   1.98711   6.61111 Br  0  0  0  0  0  0
   0.72852  -3.32890   4.17487 H   0  0  0  0  0  0
   0.71547   0.88491   4.03169 H   0  0  0  0  0  0
   4.83699  -2.15094   3.20798 H   0  0  0  0  0  0
   5.50006  -0.93364   4.24483 H   0  0  0  0  0  0
  -1.47173  -1.14131   3.40474 H   0  0  0  0  0  0
  -0.61540  -2.25522   2.37819 H   0  0  0  0  0  0
   3.33753   2.14799   1.65571 H   0  0  0  0  0  0
   0.90348   2.15823   1.23244 H   0  0  0  0  0  0
   3.44588  -2.04956   0.80341 H   0  0  0  0  0  0
   1.07280  -2.05603   0.43647 H   0  0  0  0  0  0
   5.57640  -0.60141   1.65780 H   0  0  0  0  0  0
   5.14370   0.78049   2.58337 H   0  0  0  0  0  0
  -0.94782   0.72651   2.00134 H   0  0  0  0  0  0
  -1.27960  -0.55409   0.86747 H   0  0  0  0  0  0
   3.44224  -4.41634   4.62908 H   0  0  0  0  0  0
   4.84837  -4.07337   6.71777 H   0  0  0  0  0  0
   4.44158  -2.36036   6.70762 H   0  0  0  0  0  0
   5.39557  -3.06816   5.39166 H   0  0  0  0  0  0
   2.91364   2.10852   4.24201 H   0  0  0  0  0  0
   4.85522   2.48290   5.83455 H   0  0  0  0  0  0
   5.29669   1.42261   4.52745 H   0  0  0  0  0  0
   4.94209   0.74528   6.11930 H   0  0  0  0  0  0
  2  1  1  0  0  0
  1  3  2  0  0  0
  1 17  1  0  0  0
  2  4  2  0  0  0
  2  7  1  0  0  0
  5  3  1  0  0  0
  4  6  1  0  0  0
  4 20  1  0  0  0
  5  6  2  0  0  0
  5  8  1  0  0  0
  7 15  1  0  0  0
  8 16  1  0  0  0
 10  9  1  0  0  0
  9 11  2  0  0  0
 10 12  2  0  0  0
 10 15  1  0  0  0
 13 11  1  0  0  0
 12 14  1  0  0  0
 13 14  2  0  0  0
 13 16  1  0  0  0
 17 18  1  0  0  0
 17 19  1  0  0  0
 20 21  1  0  0  0
 20 22  1  0  0  0
  3 23  1  0  0  0
  6 24  1  0  0  0
  7 25  1  0  0  0
  7 26  1  0  0  0
  8 27  1  0  0  0
  8 28  1  0  0  0
  9 29  1  0  0  0
 11 30  1  0  0  0
 12 31  1  0  0  0
 14 32  1  0  0  0
 15 33  1  0  0  0
 15 34  1  0  0  0
 16 35  1  0  0  0
 16 36  1  0  0  0
 17 37  1  0  0  0
 18 38  1  0  0  0
 18 39  1  0  0  0
 18 40  1  0  0  0
 20 41  1  0  0  0
 21 42  1  0  0  0
 21 43  1  0  0  0
 21 44  1  0  0  0
M  END
