CIP:10R; BB:P-93.3.4.1;
__Jmol-14_05301721583D 1   1.00000     0.00000     0
Jmol version 14.17.2  2017-05-27 15:31 EXTRACT: ({0:22})
 23 23  0  0  0  0              1 V2000
   2.95520  -3.22670   2.70296 C   0  0  0  0  0  0
   3.96507  -2.27551   2.50910 C   0  0  0  0  0  0
   1.61581  -2.88490   2.58213 C   0  0  0  0  0  0
   3.61680  -0.94175   2.24166 C   0  0  0  0  0  0
   1.26794  -1.56475   2.27694 C   0  0  0  0  0  0
   2.26639  -0.57288   2.12725 C   0  0  0  0  0  0
  -0.16024  -1.22299   2.07846 N   0  3  0  0  0  0
  -0.99350  -2.13207   2.19148 O   0  5  0  0  0  0
  -0.43605  -0.05416   1.80175 O   0  0  0  0  0  0
   5.66801  -2.92008   2.45196 S   0  0  0  0  0  0
   6.43564  -1.55954   2.86295 O   0  0  0  0  0  0
   5.78078  -3.87787   3.59733 O   0  0  0  0  0  0
   7.85583  -1.70233   2.70968 C   0  0  0  0  0  0
   8.52531  -0.34837   2.63392 C   0  0  0  0  0  0
   3.21464  -4.25851   2.91781 H   0  0  0  0  0  0
   0.86066  -3.66037   2.70586 H   0  0  0  0  0  0
   4.38524  -0.19043   2.09295 H   0  0  0  0  0  0
   2.00956   0.45758   1.90096 H   0  0  0  0  0  0
   8.07904  -2.23016   1.77307 H   0  0  0  0  0  0
   8.26615  -2.28198   3.54166 H   0  0  0  0  0  0
   8.58592   0.11314   3.62507 H   0  0  0  0  0  0
   7.97155   0.33253   1.98698 H   0  0  0  0  0  0
   9.54039  -0.46443   2.24090 H   0  0  0  0  0  0
  1  2  1  0  0  0
  1  3  2  0  0  0
  2  4  2  0  0  0
  2 10  1  0  0  0
  3  5  1  0  0  0
  4  6  1  0  0  0
  5  6  2  0  0  0
  5  7  1  0  0  0
  7  8  1  0  0  0
  7  9  2  0  0  0
 10 11  1  0  0  0
 10 12  2  0  0  0
 11 13  1  0  0  0
 13 14  1  0  0  0
  1 15  1  0  0  0
  3 16  1  0  0  0
  4 17  1  0  0  0
  6 18  1  0  0  0
 13 19  1  0  0  0
 13 20  1  0  0  0
 14 21  1  0  0  0
 14 22  1  0  0  0
 14 23  1  0  0  0
M  END
