CIP:1P 5P 6Z 7Z; BB:P-93.4.2;
__Jmol-14_05301721583D 1   1.00000     0.00000     0
Jmol version 14.17.2  2017-05-27 15:31 EXTRACT: ({0:16})
 17 16  0  0  0  0              1 V2000
   7.90576  -0.44786   1.46222 C   0  0  0  0  0  0
   6.61312  -0.51887   1.54681 C   0  0  0  0  0  0
   5.41776  -0.57751   1.63878 C   0  0  0  0  0  0
   4.22457  -0.63109   1.74031 C   0  0  0  0  0  0
   2.93329  -0.69626   1.85936 C   0  0  0  0  0  0
   2.06479   0.25955   1.21160 C   0  0  0  0  0  0
   0.72352   0.26443   1.26988 C   0  0  0  0  0  0
  -0.16326  -0.69770   1.99740 C   0  0  0  0  0  0
   8.57382   0.51681   2.18687 O   0  0  0  0  0  0
   8.54917  -1.12370   0.90888 H   0  0  0  0  0  0
   2.51434  -1.49303   2.46175 H   0  0  0  0  0  0
   2.55391   1.03818   0.62981 H   0  0  0  0  0  0
   0.20288   1.04954   0.73091 H   0  0  0  0  0  0
  -0.85706  -1.16548   1.29423 H   0  0  0  0  0  0
  -0.74561  -0.16567   2.75403 H   0  0  0  0  0  0
   0.37965  -1.49973   2.50239 H   0  0  0  0  0  0
   7.96325   1.08788   2.68773 H   0  0  0  0  0  0
  1  2  2  0  0  0
  1  9  1  0  0  0
  1 10  1  0  0  0
  2  3  2  0  0  0
  3  4  2  0  0  0
  4  5  2  0  0  0
  5  6  1  0  0  0
  5 11  1  0  0  0
  6  7  2  0  0  0
  6 12  1  0  0  0
  7  8  1  0  0  0
  7 13  1  0  0  0
  8 14  1  0  0  0
  8 15  1  0  0  0
  8 16  1  0  0  0
  9 17  1  0  0  0
M  END
