CIP:EE;BB:P-16.2.4.4, P-16.5.1.7, P-93.4.2.1.1
__Jmol-14_05291700453D 1   1.00000     0.00000     0
Jmol version 14.17.2  2017-05-27 15:31 EXTRACT: ({0:24})
 25 25  0  0  0  0              1 V2000
  -3.61326  -2.32071   0.91891 C   0  0  0  0  0  0
  -2.88978  -3.60022   0.42004 C   0  0  0  0  0  0
  -2.76834  -1.08904   1.25400 C   0  0  0  0  0  0
  -1.75393  -4.25039   1.25078 C   0  0  0  0  0  0
  -1.61600  -0.92866   0.31126 C   0  0  0  0  0  0
  -0.47288  -3.48419   1.66329 C   0  0  0  0  0  0
  -0.41162  -0.65989   0.82229 C   0  0  0  0  0  0
   0.76815  -1.49281   0.43603 C   0  0  0  0  0  0
   0.45261  -3.01061   0.50670 C   0  0  0  0  0  0
  -4.22724  -2.56844   1.78860 H   0  0  0  0  0  0
  -4.32852  -2.03048   0.13759 H   0  0  0  0  0  0
  -2.55356  -3.45339  -0.60855 H   0  0  0  0  0  0
  -3.67137  -4.36078   0.32771 H   0  0  0  0  0  0
  -2.39727  -1.22840   2.27697 H   0  0  0  0  0  0
  -3.37614  -0.18088   1.27808 H   0  0  0  0  0  0
  -1.42793  -5.13274   0.68545 H   0  0  0  0  0  0
  -2.20415  -4.64699   2.16377 H   0  0  0  0  0  0
  -1.68718  -1.42696  -0.65252 H   0  0  0  0  0  0
   0.11518  -4.18475   2.26778 H   0  0  0  0  0  0
  -0.71367  -2.68868   2.37454 H   0  0  0  0  0  0
  -0.33690  -0.19439   1.80207 H   0  0  0  0  0  0
   1.57588  -1.27185   1.14513 H   0  0  0  0  0  0
   1.14565  -1.20991  -0.55005 H   0  0  0  0  0  0
   0.04987  -3.34027  -0.45731 H   0  0  0  0  0  0
   1.41507  -3.52786   0.60709 H   0  0  0  0  0  0
  1  2  1  0  0  0
  1  3  1  0  0  0
  2  4  1  0  0  0
  3  5  1  0  0  0
  4  6  1  0  0  0
  5  7  2  0  0  0
  6  9  1  0  0  0
  7  8  1  0  0  0
  8  9  1  0  0  0
  1 10  1  0  0  0
  1 11  1  0  0  0
  2 12  1  0  0  0
  2 13  1  0  0  0
  3 14  1  0  0  0
  3 15  1  0  0  0
  4 16  1  0  0  0
  4 17  1  0  0  0
  5 18  1  0  0  0
  6 19  1  0  0  0
  6 20  1  0  0  0
  7 21  1  0  0  0
  8 22  1  0  0  0
  8 23  1  0  0  0
  9 24  1  0  0  0
  9 25  1  0  0  0
M  END
