CIP:R;BB:P-16.2.4.4, P-16.5.1.7, P-93.4.2.1.1
__Jmol-14_05291700433D 1   1.00000     0.00000     0
Jmol version 14.17.2  2017-05-27 15:31 EXTRACT: ({0:11})
 12 11  0  0  0  0              1 V2000
   1.30811  -2.12781  -0.55645 C   0  0  0  0  0  0
   1.79396  -3.56696  -0.32302 C   0  0  0  0  0  0
   2.18064  -1.47997  -1.49126 O   0  0  0  0  0  0
  -0.12212  -2.09408  -1.06362 C   0  0  0  0  0  0
  -0.73076  -1.06787  -1.35382 O   0  0  0  0  0  0
   3.06383  -3.54181   0.33474 O   0  0  0  0  0  0
   1.33972  -1.56695   0.38190 H   0  0  0  0  0  0
   1.91529  -4.09577  -1.27012 H   0  0  0  0  0  0
   1.09095  -4.12683   0.30673 H   0  0  0  0  0  0
   3.02692  -1.35659  -1.01737 H   0  0  0  0  0  0
  -0.62352  -3.06674  -1.16126 H   0  0  0  0  0  0
   3.37366  -4.46508   0.41256 H   0  0  0  0  0  0
  1  2  1  0  0  0
  1  3  1  0  0  0
  1  4  1  0  0  0
  2  6  1  0  0  0
  4  5  2  0  0  0
  1  7  1  0  0  0
  2  8  1  0  0  0
  2  9  1  0  0  0
  3 10  1  0  0  0
  4 11  1  0  0  0
  6 12  1  0  0  0
M  END
