CIP:2R 4S; BB:P-93.1.2.1;
__Jmol-14_05301721583D 1   1.00000     0.00000     0
Jmol version 14.17.2  2017-05-27 15:31 EXTRACT: ({0:17})
 18 18  0  0  0  0              1 V2000
   3.08869   0.23341  -0.10635 C   0  0  0  0  0  0
   2.25239   1.51679   0.00348 C   0  0  0  0  0  0
   4.51299   0.66984  -0.42779 C   0  0  0  0  0  0
   3.22599   2.66349  -0.27758 C   0  0  0  0  0  0
   4.60283   2.11231   0.00955 C   0  0  0  0  0  0
   1.86726   1.58198   1.02942 H   0  0  0  0  0  0
   1.01475   1.56642  -0.88952 C   0  0  0  0  0  0
   2.87156   4.09643   0.74240 Cl  0  0  0  0  0  0
   3.18881   2.99729  -1.32370 H   0  0  0  0  0  0
   0.19112   0.67316  -1.02048 O   0  0  0  0  0  0
   0.82870   2.78387  -1.44190 O   0  0  0  0  0  0
   2.72431  -0.48574  -0.84777 H   0  0  0  0  0  0
   3.08371  -0.28399   0.85771 H   0  0  0  0  0  0
   4.69795   0.58759  -1.50155 H   0  0  0  0  0  0
   5.25881   0.04931   0.08374 H   0  0  0  0  0  0
   5.37830   2.65546  -0.54591 H   0  0  0  0  0  0
   4.85338   2.17318   1.07580 H   0  0  0  0  0  0
   0.20275   3.29072  -0.88360 H   0  0  0  0  0  0
  1  2  1  0  0  0
  1  3  1  0  0  0
  2  4  1  0  0  0
  2  6  1  0  0  0
  2  7  1  0  0  0
  3  5  1  0  0  0
  4  5  1  0  0  0
  4  8  1  0  0  0
  4  9  1  0  0  0
  7 10  2  0  0  0
  7 11  1  0  0  0
  1 12  1  0  0  0
  1 13  1  0  0  0
  3 14  1  0  0  0
  3 15  1  0  0  0
  5 16  1  0  0  0
  5 17  1  0  0  0
 11 18  1  0  0  0
M  END
