CIP:SSSR;BB:P-16.2.4.4, P-16.5.1.7, P-93.4.2.1.1
__Jmol-14_05291700453D 1   1.00000     0.00000     0
Jmol version 14.17.2  2017-05-27 15:31 EXTRACT: ({0:18})
 19 20  0  0  0  0              1 V2000
  -1.97705  -2.27773   0.49460 C   0  0  0  0  0  0
  -0.42889  -2.20947   0.76888 C   0  0  0  0  0  0
  -1.84047  -2.58186  -0.94265 C   0  0  0  0  0  0
  -2.83193  -3.51301   0.89459 C   0  0  0  0  0  0
  -1.12464  -3.88327  -0.66761 C   0  0  0  0  0  0
   0.10519  -3.45481   0.06801 C   0  0  0  0  0  0
  -2.14172  -4.65959   0.18603 C   0  0  0  0  0  0
  -3.07442  -2.73792  -1.57914 F   0  0  0  0  0  0
  -1.26646  -1.82795  -1.55107 H   0  0  0  0  0  0
   0.92184  -4.74499   1.37058 Br  0  0  0  0  0  0
   0.95710  -3.21287  -0.62419 H   0  0  0  0  0  0
  -0.88911  -4.44648  -1.60041 H   0  0  0  0  0  0
  -2.48573  -1.31576   0.73664 H   0  0  0  0  0  0
  -0.11196  -2.07926   1.78112 H   0  0  0  0  0  0
  -0.02422  -1.36291   0.22117 H   0  0  0  0  0  0
  -3.87529  -3.42791   0.47382 H   0  0  0  0  0  0
  -2.99206  -3.70056   1.97835 H   0  0  0  0  0  0
  -2.80908  -5.24184  -0.42295 H   0  0  0  0  0  0
  -1.67285  -5.38513   0.91879 H   0  0  0  0  0  0
  1  2  1  0  0  0
  1  3  1  0  0  0
  1  4  1  0  0  0
  1 13  1  0  0  0
  2  6  1  0  0  0
  3  5  1  0  0  0
  3  8  1  0  0  0
  3  9  1  0  0  0
  4  7  1  0  0  0
  5  6  1  0  0  0
  5  7  1  0  0  0
  5 12  1  0  0  0
  6 10  1  0  0  0
  6 11  1  0  0  0
  2 14  1  0  0  0
  2 15  1  0  0  0
  4 16  1  0  0  0
  4 17  1  0  0  0
  7 18  1  0  0  0
  7 19  1  0  0  0
M  END
