CIP:R;BB:P-16.2.4.4, P-16.5.1.7, P-93.4.2.1.1
__Jmol-14_05291700433D 1   1.00000     0.00000     0
Jmol version 14.17.2  2017-05-27 15:31 EXTRACT: ({0:8})
  9  8  0  0  0  0              1 V2000
  -0.22105  -0.01804  -2.13375 C   0  0  0  0  0  0
   1.25456   0.24469  -2.34211 C   0  0  0  0  0  0
  -0.87839   1.21869  -1.87053 O   0  0  0  0  0  0
  -0.65506  -0.45483  -3.04087 H   0  0  0  0  0  0
  -0.39195  -0.70012  -1.29784 H   1  0  0  0  0  0
   1.74993  -0.63593  -2.76588 H   0  0  0  0  0  0
   1.73817   0.48313  -1.38812 H   0  0  0  0  0  0
   1.41601   1.09761  -3.00455 H   0  0  0  0  0  0
  -1.77983   1.14990  -2.22231 H   0  0  0  0  0  0
  1  2  1  0  0  0
  1  3  1  0  0  0
  1  4  1  0  0  0
  1  5  1  0  0  0
  2  6  1  0  0  0
  2  7  1  0  0  0
  2  8  1  0  0  0
  3  9  1  0  0  0
M  END
