CIP:1s 6r 9s 10s; BB:P-93.5.7.2;
__Jmol-14_05301721583D 1   1.00000     0.00000     0
Jmol version 14.17.2  2017-05-27 15:31 EXTRACT: ({0:61})
 62 64  0  0  0  0              1 V2000
   6.89076   0.64617  -0.62492 C   0  0  0  0  0  0
   6.43783   1.55106   0.53332 C   0  0  0  0  0  0
   6.21051  -0.70807  -0.38630 C   0  0  0  0  0  0
   5.08087   2.03847   0.22645 C   0  0  0  0  0  0
   4.72136  -0.52964  -0.48435 C   0  0  0  0  0  0
   4.16550   0.88394  -0.13763 C   0  0  0  0  0  0
   3.15342   1.33367  -1.18414 C   0  0  0  0  0  0
   6.51023   1.04075  -1.56936 H   0  0  0  0  0  0
   8.40000   0.59941  -0.79227 C   0  0  0  0  0  0
  11.05362  -0.15303  -0.01987 C   0  0  0  0  0  0
  10.52532   1.17499   0.55717 C   0  0  0  0  0  0
  10.34619  -0.86300  -1.18861 C   0  0  0  0  0  0
   9.07919   1.36107   0.36025 C   0  0  0  0  0  0
   8.87525  -0.82505  -1.06684 C   0  0  0  0  0  0
   8.64425   1.17116  -1.69532 H   0  0  0  0  0  0
  11.06027  -1.42128   1.55514 Br  0  0  0  0  0  0
  12.40482   0.10376  -0.57702 C   0  0  0  0  0  0
  14.99425   0.67200  -1.35593 C   0  0  0  0  0  0
  14.64582  -0.57386  -1.00307 C   0  0  0  0  0  0
  13.95794   1.67546  -1.57051 C   0  0  0  0  0  0
  13.31397  -0.87569  -0.60322 C   0  0  0  0  0  0
  12.70348   1.37868  -1.25022 C   0  0  0  0  0  0
  16.41048   1.11710  -1.53568 C   0  0  0  0  0  0
   1.96627   0.41530  -0.97045 C   0  0  0  0  0  0
   0.61033   0.99478  -1.27128 C   0  0  0  0  0  0
  -0.29041  -0.18908  -1.57757 C   0  0  0  0  0  0
  17.42002   0.26429  -0.77646 C   0  0  0  0  0  0
   7.02549   2.46459   0.65878 H   0  0  0  0  0  0
   6.45413   1.01909   1.49458 H   0  0  0  0  0  0
   6.48112  -1.12579   0.59014 H   0  0  0  0  0  0
   6.48638  -1.46687  -1.13625 H   0  0  0  0  0  0
   5.14916   2.78941  -0.56223 H   0  0  0  0  0  0
   4.69312   2.55121   1.11578 H   0  0  0  0  0  0
   4.25386  -1.27187   0.17846 H   0  0  0  0  0  0
   4.42871  -0.83480  -1.49080 H   0  0  0  0  0  0
   3.63543   0.73521   0.80490 H   0  0  0  0  0  0
   3.55367   1.21672  -2.20014 H   0  0  0  0  0  0
   2.90653   2.39516  -1.09044 H   0  0  0  0  0  0
  10.99466   2.08896   0.17327 H   0  0  0  0  0  0
  10.74380   1.26676   1.62870 H   0  0  0  0  0  0
  10.65760  -1.92061  -1.26437 H   0  0  0  0  0  0
  10.60417  -0.41614  -2.15742 H   0  0  0  0  0  0
   8.63547   1.10713   1.32395 H   0  0  0  0  0  0
   8.93478   2.43932   0.19416 H   0  0  0  0  0  0
   8.44934  -1.18915  -2.01810 H   0  0  0  0  0  0
   8.57190  -1.53122  -0.28713 H   0  0  0  0  0  0
  15.35414  -1.38414  -0.87048 H   0  0  0  0  0  0
  14.20660   2.61326  -2.05504 H   0  0  0  0  0  0
  13.12095  -1.87614  -0.23930 H   0  0  0  0  0  0
  11.91840   2.07378  -1.54142 H   0  0  0  0  0  0
  16.51184   2.14780  -1.16941 H   0  0  0  0  0  0
  16.64766   1.12693  -2.59831 H   0  0  0  0  0  0
   1.92247   0.08999   0.07246 H   0  0  0  0  0  0
   2.14174  -0.49261  -1.55850 H   0  0  0  0  0  0
   0.63519   1.69044  -2.10758 H   0  0  0  0  0  0
   0.24229   1.53274  -0.39086 H   0  0  0  0  0  0
  -0.18633  -0.97012  -0.81471 H   0  0  0  0  0  0
  -0.00158  -0.62910  -2.53579 H   0  0  0  0  0  0
  -1.33720   0.11807  -1.63532 H   0  0  0  0  0  0
  17.43218  -0.77216  -1.14086 H   0  0  0  0  0  0
  17.20375   0.24848   0.29452 H   0  0  0  0  0  0
  18.42447   0.66517  -0.91339 H   0  0  0  0  0  0
  1  2  1  0  0  0
  1  3  1  0  0  0
  1  8  1  0  0  0
  1  9  1  0  0  0
  2  4  1  0  0  0
  3  5  1  0  0  0
  4  6  1  0  0  0
  5  6  1  0  0  0
  6  7  1  0  0  0
  7 24  1  0  0  0
  9 13  1  0  0  0
  9 14  1  0  0  0
  9 15  1  0  0  0
 10 11  1  0  0  0
 10 12  1  0  0  0
 10 16  1  0  0  0
 10 17  1  0  0  0
 11 13  1  0  0  0
 12 14  1  0  0  0
 17 21  2  0  0  0
 17 22  1  0  0  0
 18 19  2  0  0  0
 18 20  1  0  0  0
 18 23  1  0  0  0
 19 21  1  0  0  0
 20 22  2  0  0  0
 23 27  1  0  0  0
 24 25  1  0  0  0
 25 26  1  0  0  0
  2 28  1  0  0  0
  2 29  1  0  0  0
  3 30  1  0  0  0
  3 31  1  0  0  0
  4 32  1  0  0  0
  4 33  1  0  0  0
  5 34  1  0  0  0
  5 35  1  0  0  0
  6 36  1  0  0  0
  7 37  1  0  0  0
  7 38  1  0  0  0
 11 39  1  0  0  0
 11 40  1  0  0  0
 12 41  1  0  0  0
 12 42  1  0  0  0
 13 43  1  0  0  0
 13 44  1  0  0  0
 14 45  1  0  0  0
 14 46  1  0  0  0
 19 47  1  0  0  0
 20 48  1  0  0  0
 21 49  1  0  0  0
 22 50  1  0  0  0
 23 51  1  0  0  0
 23 52  1  0  0  0
 24 53  1  0  0  0
 24 54  1  0  0  0
 25 55  1  0  0  0
 25 56  1  0  0  0
 26 57  1  0  0  0
 26 58  1  0  0  0
 26 59  1  0  0  0
 27 60  1  0  0  0
 27 61  1  0  0  0
 27 62  1  0  0  0
M  END
