CIP:R;BB:P-16.2.4.4, P-16.5.1.7, P-93.4.2.1.1
__Jmol-14_05291700433D 1   1.00000     0.00000     0
Jmol version 14.17.2  2017-05-27 15:31 EXTRACT: ({0:15})
 16 15  0  0  0  0              1 V2000
   2.10879  -0.54649  -0.22737 C   0  0  0  0  0  0
   2.15903  -2.07953  -0.22981 C   0  0  0  0  0  0
   0.88460  -0.05509  -0.81107 O   0  0  0  0  0  0
  -0.32012  -0.52783  -0.20280 C   0  0  0  0  0  0
   3.49147   0.14307  -1.20427 S   0  0  0  0  0  0
   4.90406  -0.34474  -0.18085 C   0  0  0  0  0  0
   2.17965  -0.16144   0.79388 H   0  0  0  0  0  0
   3.10128  -2.47146   0.16618 H   0  0  0  0  0  0
   2.00049  -2.48340  -1.23148 H   0  0  0  0  0  0
   1.36580  -2.49801   0.39961 H   0  0  0  0  0  0
  -0.26568  -0.46648   0.89026 H   0  0  0  0  0  0
  -0.52388  -1.55847  -0.51736 H   0  0  0  0  0  0
  -1.14643   0.09535  -0.54886 H   0  0  0  0  0  0
   5.09576  -1.41865  -0.26733 H   0  0  0  0  0  0
   4.73673  -0.07912   0.86237 H   0  0  0  0  0  0
   5.79530   0.18614  -0.53343 H   0  0  0  0  0  0
  1  2  1  0  0  0
  1  3  1  0  0  0
  1  5  1  0  0  0
  3  4  1  0  0  0
  5  6  1  0  0  0
  1  7  1  0  0  0
  2  8  1  0  0  0
  2  9  1  0  0  0
  2 10  1  0  0  0
  4 11  1  0  0  0
  4 12  1  0  0  0
  4 13  1  0  0  0
  6 14  1  0  0  0
  6 15  1  0  0  0
  6 16  1  0  0  0
M  END
