CIP:RR;BB:P-16.2.4.4, P-16.5.1.7, P-93.4.2.1.1
__Jmol-14_05291700443D 1   1.00000     0.00000     0
Jmol version 14.17.2  2017-05-27 15:31 EXTRACT: ({0:30})
 31 31  0  0  0  0              1 V2000
   6.96410  -4.72934   1.91817 C   0  0  0  0  0  0
   6.74788  -5.64053   2.70666 O   0  0  0  0  0  0
   8.17632  -4.66067   1.33890 O   0  0  0  0  0  0
   6.06338  -3.55117   1.52766 C   0  0  0  0  0  0
   6.57240  -2.15872   2.54327 Cl  0  0  0  0  0  0
   2.59216  -4.77924   2.64146 C   0  0  0  0  0  0
   1.72158  -3.87205   1.89436 C   0  0  0  0  0  0
   2.31594  -2.90711   1.16347 C   0  0  0  0  0  0
   3.74733  -2.80967   1.05119 C   0  0  0  0  0  0
   4.55213  -3.72106   1.63599 C   0  0  0  0  0  0
   3.91978  -4.77132   2.43434 C   0  0  0  0  0  0
  -0.40147  -5.22218   2.64245 C   0  0  0  0  0  0
   0.26873  -4.29117   1.61183 C   0  0  0  0  0  0
  -0.68003  -3.10561   1.18370 C   0  0  0  0  0  0
  -1.83566  -2.77546   2.11796 C   0  0  0  0  0  0
   0.42827  -5.12842   0.46443 O   0  0  0  0  0  0
   8.67526  -5.38282   1.76687 H   0  0  0  0  0  0
   6.30500  -3.30158   0.48871 H   0  0  0  0  0  0
   2.17404  -5.52969   3.29858 H   0  0  0  0  0  0
   1.77142  -2.27685   0.46777 H   0  0  0  0  0  0
   4.14018  -1.99178   0.45821 H   0  0  0  0  0  0
   4.50441  -5.56051   2.88987 H   0  0  0  0  0  0
   0.18588  -6.12713   2.84137 H   0  0  0  0  0  0
  -1.34157  -5.61026   2.23427 H   0  0  0  0  0  0
  -0.60073  -4.73058   3.59792 H   0  0  0  0  0  0
  -1.09193  -3.30313   0.19092 H   0  0  0  0  0  0
  -0.13981  -2.16491   1.08151 H   0  0  0  0  0  0
  -1.47658  -2.49094   3.10889 H   0  0  0  0  0  0
  -2.53052  -3.61064   2.21649 H   0  0  0  0  0  0
  -2.40612  -1.92995   1.71710 H   0  0  0  0  0  0
   1.18579  -5.71447   0.66104 H   0  0  0  0  0  0
  1  2  2  0  0  0
  1  3  1  0  0  0
  1  4  1  0  0  0
  4  5  1  0  0  0
  4 10  1  0  0  0
  6 11  2  0  0  0
  6  7  1  0  0  0
  7  8  2  0  0  0
  7 13  1  0  0  0
  8  9  1  0  0  0
  9 10  2  0  0  0
 10 11  1  0  0  0
 12 13  1  0  0  0
 13 14  1  0  0  0
 13 16  1  0  0  0
 14 15  1  0  0  0
  3 17  1  0  0  0
  4 18  1  0  0  0
  6 19  1  0  0  0
  8 20  1  0  0  0
  9 21  1  0  0  0
 11 22  1  0  0  0
 12 23  1  0  0  0
 12 24  1  0  0  0
 12 25  1  0  0  0
 14 26  1  0  0  0
 14 27  1  0  0  0
 15 28  1  0  0  0
 15 29  1  0  0  0
 15 30  1  0  0  0
 16 31  1  0  0  0
M  END
