CIP:R;BB:P-16.2.4.4, P-16.5.1.7, P-93.4.2.1.1
__Jmol-14_05291700443D 1   1.00000     0.00000     0
Jmol version 14.17.2  2017-05-27 15:31 EXTRACT: ({0:14})
 15 14  0  0  0  0              1 V2000
   3.59401  -0.91353   0.07041 C   0  0  0  0  0  0
   2.67065   0.29526  -0.00653 C   0  0  0  0  0  0
   1.20846  -0.13911  -0.13796 C   0  0  0  0  0  0
   0.24590   1.03699  -0.17985 C   0  0  0  0  0  0
   3.03828   1.09029  -1.13494 O   0  0  0  0  0  0
   4.63424  -0.59696   0.20603 H   0  0  0  0  0  0
   3.56236  -1.49400  -0.85506 H   0  0  0  0  0  0
   3.32418  -1.57162   0.90598 H   0  0  0  0  0  0
   2.79276   0.91234   0.89345 H   0  0  0  0  0  0
   0.93762  -0.78955   0.69614 H   0  0  0  0  0  0
   1.07568  -0.72002  -1.05937 H   0  0  0  0  0  0
   0.42942   1.67597  -1.05108 H   0  0  0  0  0  0
   0.33396   1.64969   0.71819 H   0  0  0  0  0  0
  -0.78799   0.67776  -0.24385 H   0  0  0  0  0  0
   3.84964   1.57083  -0.90723 H   0  0  0  0  0  0
  1  2  1  0  0  0
  2  3  1  0  0  0
  2  5  1  0  0  0
  3  4  1  0  0  0
  1  6  1  0  0  0
  1  7  1  0  0  0
  1  8  1  0  0  0
  2  9  1  0  0  0
  3 10  1  0  0  0
  3 11  1  0  0  0
  4 12  1  0  0  0
  4 13  1  0  0  0
  4 14  1  0  0  0
  5 15  1  0  0  0
M  END
