CIP:1R; BB:P-92.3, P-93.4.1.1;
__Jmol-14_05301721583D 1   1.00000     0.00000     0
Jmol version 14.17.2  2017-05-27 15:31 EXTRACT: ({0:8})
  9  8  0  0  0  0              1 V2000
  -0.22105  -0.06159  -2.13294 C   0  0  0  0  0  0
   1.25456   0.19683  -2.34662 C   0  0  0  0  0  0
  -0.87839   1.18025  -1.89502 O   0  0  0  0  0  0
  -0.65506  -0.51681  -3.03095 H   0  0  0  0  0  0
  -0.39196  -0.72647  -1.28328 H   1  0  0  0  0  0
   1.74993  -0.69226  -2.75232 H   0  0  0  0  0  0
   1.73817   0.45469  -1.39769 H   0  0  0  0  0  0
   1.41601   1.03605  -3.02633 H   0  0  0  0  0  0
  -1.77983   1.10430  -2.24532 H   0  0  0  0  0  0
  1  2  1  0  0  0
  1  3  1  0  0  0
  1  4  1  0  0  0
  1  5  1  0  0  0
  2  6  1  0  0  0
  2  7  1  0  0  0
  2  8  1  0  0  0
  3  9  1  0  0  0
M  END
