CIP:EEEESRSRSREEEE;BB:P-16.2.4.4, P-16.5.1.7, P-93.4.2.1.1
__Jmol-14_05291700483D 1   1.00000     0.00000     0
Jmol version 14.17.2  2017-05-27 15:31 EXTRACT: ({0:100})
101106  0  0  0  0              1 V2000
  14.37095   1.00468  -4.43320 O   0  0  0  0  0  0
  15.59532   1.00672  -3.80343 C   0  0  0  0  0  0
  13.32509   1.71670  -3.90905 C   0  0  0  0  0  0
  12.82014   2.76162  -4.58962 C   0  0  0  0  0  0
  16.63237   1.56233  -4.44646 C   0  0  0  0  0  0
  18.03222   1.13518  -4.34431 C   0  0  0  0  0  0
  18.36408  -0.21261  -4.10273 C   0  0  0  0  0  0
  19.03412   2.00436  -4.79090 C   0  0  0  0  0  0
  19.64670  -0.68732  -4.38452 C   0  0  0  0  0  0
  20.30973   1.53511  -5.07440 C   0  0  0  0  0  0
  20.60996   0.18898  -4.89949 C   0  0  0  0  0  0
  11.48852   3.32719  -4.33069 C   0  0  0  0  0  0
  11.22858   4.69329  -4.50877 C   0  0  0  0  0  0
  10.43093   2.47456  -3.98243 C   0  0  0  0  0  0
   9.95410   5.21274  -4.22944 C   0  0  0  0  0  0
   9.17490   2.98404  -3.68620 C   0  0  0  0  0  0
   8.94198   4.34502  -3.78621 C   0  0  0  0  0  0
  21.86302  -0.25611  -5.33196 O   0  0  0  0  0  0
   7.67964   4.80751  -3.38519 O   0  0  0  0  0  0
   5.51362   3.86124  -4.30149 C   0  0  0  0  0  0
   6.75317   4.79568  -4.50049 C   0  0  0  0  0  0
   4.17623   4.55514  -3.99301 C   0  0  0  0  0  0
   6.49067   6.27425  -4.85374 C   0  0  0  0  0  0
   3.88996   5.99547  -4.46225 C   0  0  0  0  0  0
   5.07400   6.80998  -4.99991 C   0  0  0  0  0  0
  24.04660   0.58547  -4.40733 C   0  0  0  0  0  0
  22.79449  -0.33347  -4.22326 C   0  0  0  0  0  0
  25.34259  -0.13168  -4.84373 C   0  0  0  0  0  0
  23.02604  -1.83514  -3.94989 C   0  0  0  0  0  0
  25.62743  -1.57497  -4.36721 C   0  0  0  0  0  0
  24.44328  -2.38287  -3.81381 C   0  0  0  0  0  0
   3.04607   6.76786  -3.42774 C   0  0  0  0  0  0
   3.27130   7.89886  -3.02240 O   0  0  0  0  0  0
   1.92964   6.09220  -3.03955 O   0  0  0  0  0  0
  26.45633  -2.36904  -5.40373 C   0  0  0  0  0  0
  26.21821  -3.50404  -5.79010 O   0  0  0  0  0  0
  27.57365  -1.71375  -5.81811 O   0  0  0  0  0  0
   5.74654   2.68767  -3.42677 O   0  0  0  0  0  0
   4.75541   1.67118  -3.48086 C   0  0  0  0  0  0
   4.99036   0.34927  -3.33900 C   0  0  0  0  0  0
   3.96757  -0.75027  -3.36381 C   0  0  0  0  0  0
  23.77533   1.81162  -5.20255 O   0  0  0  0  0  0
  24.73837   2.85994  -5.16428 C   0  0  0  0  0  0
  24.48389   4.16560  -5.40606 C   0  0  0  0  0  0
  25.48589   5.29605  -5.44538 C   0  0  0  0  0  0
   2.57433  -0.53818  -3.48305 C   0  0  0  0  0  0
   4.39175  -2.08632  -3.24716 C   0  0  0  0  0  0
   1.66776  -1.60380  -3.46778 C   0  0  0  0  0  0
   3.48742  -3.15360  -3.23073 C   0  0  0  0  0  0
   2.11971  -2.90930  -3.33640 C   0  0  0  0  0  0
  26.87394   5.06820  -5.49341 C   0  0  0  0  0  0
  25.07578   6.65684  -5.50716 C   0  0  0  0  0  0
  27.79551   6.11808  -5.58345 C   0  0  0  0  0  0
  26.00497   7.70432  -5.51016 C   0  0  0  0  0  0
  27.36358   7.43751  -5.55492 C   0  0  0  0  0  0
  15.64596   0.29549  -2.98838 H   0  0  0  0  0  0
  12.87081   1.22290  -3.05614 H   0  0  0  0  0  0
  13.37444   3.16315  -5.43045 H   0  0  0  0  0  0
  16.41769   2.21351  -5.28657 H   0  0  0  0  0  0
  17.60584  -0.92223  -3.78980 H   0  0  0  0  0  0
  18.80527   3.04695  -4.99866 H   0  0  0  0  0  0
  19.86465  -1.74521  -4.25933 H   0  0  0  0  0  0
  21.06221   2.20389  -5.48261 H   0  0  0  0  0  0
  12.01866   5.36645  -4.83553 H   0  0  0  0  0  0
  10.57423   1.40336  -3.91924 H   0  0  0  0  0  0
   9.77167   6.27549  -4.34195 H   0  0  0  0  0  0
   8.38417   2.31719  -3.36405 H   0  0  0  0  0  0
   5.39537   3.41815  -5.28887 H   0  0  0  0  0  0
   7.26720   4.37609  -5.37315 H   0  0  0  0  0  0
   3.91347   4.41882  -2.93882 H   0  0  0  0  0  0
   3.43685   3.95726  -4.53898 H   0  0  0  0  0  0
   6.99578   6.46818  -5.80914 H   0  0  0  0  0  0
   7.02842   6.92691  -4.15677 H   0  0  0  0  0  0
   3.20573   5.91497  -5.31244 H   0  0  0  0  0  0
   4.89790   6.96281  -6.07111 H   0  0  0  0  0  0
   5.06530   7.83060  -4.59929 H   0  0  0  0  0  0
  24.24006   0.94447  -3.39697 H   0  0  0  0  0  0
  22.29671   0.06127  -3.32582 H   0  0  0  0  0  0
  26.14471   0.45565  -4.38508 H   0  0  0  0  0  0
  25.51775  -0.01434  -5.91664 H   0  0  0  0  0  0
  22.48822  -2.45488  -4.67679 H   0  0  0  0  0  0
  22.51265  -2.07515  -3.00884 H   0  0  0  0  0  0
  26.31921  -1.49205  -3.52274 H   0  0  0  0  0  0
  24.43729  -3.40406  -4.21193 H   0  0  0  0  0  0
  24.62820  -2.53728  -2.74490 H   0  0  0  0  0  0
   1.80544   5.21478  -3.45455 H   0  0  0  0  0  0
  27.71368  -0.83536  -5.41597 H   0  0  0  0  0  0
   3.75415   2.05257  -3.60709 H   0  0  0  0  0  0
   6.01486   0.03909  -3.18653 H   0  0  0  0  0  0
  25.74058   2.49971  -4.96332 H   0  0  0  0  0  0
  23.45457   4.45011  -5.60403 H   0  0  0  0  0  0
   2.17301   0.45942  -3.57950 H   0  0  0  0  0  0
   5.45036  -2.31721  -3.15918 H   0  0  0  0  0  0
   0.59848  -1.41198  -3.55291 H   0  0  0  0  0  0
   3.84532  -4.17296  -3.13090 H   0  0  0  0  0  0
   1.41621  -3.73617  -3.31580 H   0  0  0  0  0  0
  27.27007   4.05902  -5.50111 H   0  0  0  0  0  0
  24.03629   6.95185  -5.58391 H   0  0  0  0  0  0
  28.85373   5.91174  -5.69439 H   0  0  0  0  0  0
  25.66075   8.73739  -5.51725 H   0  0  0  0  0  0
  28.08436   8.25170  -5.60128 H   0  0  0  0  0  0
  1  2  1  0  0  0
  1  3  1  0  0  0
  2  5  2  0  0  0
  3  4  2  0  0  0
  4 12  1  0  0  0
  5  6  1  0  0  0
  6  7  1  0  0  0
  6  8  2  0  0  0
  7  9  2  0  0  0
  8 10  1  0  0  0
  9 11  1  0  0  0
 10 11  2  0  0  0
 11 18  1  0  0  0
 12 13  1  0  0  0
 12 14  2  0  0  0
 13 15  2  0  0  0
 14 16  1  0  0  0
 15 17  1  0  0  0
 16 17  2  0  0  0
 17 19  1  0  0  0
 27 18  1  0  0  0
 21 19  1  0  0  0
 20 21  1  0  0  0
 20 22  1  0  0  0
 20 38  1  0  0  0
 21 23  1  0  0  0
 22 24  1  0  0  0
 23 25  1  0  0  0
 24 25  1  0  0  0
 24 32  1  0  0  0
 26 27  1  0  0  0
 26 28  1  0  0  0
 26 42  1  0  0  0
 27 29  1  0  0  0
 28 30  1  0  0  0
 29 31  1  0  0  0
 30 31  1  0  0  0
 30 35  1  0  0  0
 32 33  2  0  0  0
 32 34  1  0  0  0
 35 36  2  0  0  0
 35 37  1  0  0  0
 38 39  1  0  0  0
 39 40  2  0  0  0
 40 41  1  0  0  0
 41 46  1  0  0  0
 41 47  2  0  0  0
 42 43  1  0  0  0
 43 44  2  0  0  0
 44 45  1  0  0  0
 45 51  1  0  0  0
 45 52  2  0  0  0
 46 48  2  0  0  0
 47 49  1  0  0  0
 48 50  1  0  0  0
 49 50  2  0  0  0
 51 53  2  0  0  0
 52 54  1  0  0  0
 53 55  1  0  0  0
 54 55  2  0  0  0
  2 56  1  0  0  0
  3 57  1  0  0  0
  4 58  1  0  0  0
  5 59  1  0  0  0
  7 60  1  0  0  0
  8 61  1  0  0  0
  9 62  1  0  0  0
 10 63  1  0  0  0
 13 64  1  0  0  0
 14 65  1  0  0  0
 15 66  1  0  0  0
 16 67  1  0  0  0
 20 68  1  0  0  0
 21 69  1  0  0  0
 22 70  1  0  0  0
 22 71  1  0  0  0
 23 72  1  0  0  0
 23 73  1  0  0  0
 24 74  1  0  0  0
 25 75  1  0  0  0
 25 76  1  0  0  0
 26 77  1  0  0  0
 27 78  1  0  0  0
 28 79  1  0  0  0
 28 80  1  0  0  0
 29 81  1  0  0  0
 29 82  1  0  0  0
 30 83  1  0  0  0
 31 84  1  0  0  0
 31 85  1  0  0  0
 34 86  1  0  0  0
 37 87  1  0  0  0
 39 88  1  0  0  0
 40 89  1  0  0  0
 43 90  1  0  0  0
 44 91  1  0  0  0
 46 92  1  0  0  0
 47 93  1  0  0  0
 48 94  1  0  0  0
 49 95  1  0  0  0
 50 96  1  0  0  0
 51 97  1  0  0  0
 52 98  1  0  0  0
 53 99  1  0  0  0
 54100  1  0  0  0
 55101  1  0  0  0
M  END
