CIP:1R 2R 3R 4R 5S 6S; BB:P-92.5.2.2;
__Jmol-14_05301721583D 1   1.00000     0.00000     0
Jmol version 14.17.2  2017-05-27 15:31 EXTRACT: ({0:17})
 18 18  0  0  0  0              1 V2000
  -3.34520   0.08162  -1.56306 C   0  0  0  0  0  0
  -4.42402  -1.02109  -1.59267 C   0  0  0  0  0  0
  -3.91908  -2.39701  -2.10908 C   0  0  0  0  0  0
  -2.69310  -2.94789  -1.35161 C   0  0  0  0  0  0
  -1.58042  -1.87931  -1.15392 C   0  0  0  0  0  0
  -1.99952  -0.40366  -0.94962 C   0  0  0  0  0  0
  -3.21835   0.84004  -3.19476 Cl  0  0  0  0  0  0
  -5.15131  -1.15403   0.04186 Cl  0  0  0  0  0  0
  -3.53059  -2.33991  -3.85980 Cl  0  0  0  0  0  0
  -3.23604  -3.77717   0.15536 Cl  0  0  0  0  0  0
  -0.43596  -2.35104   0.17209 Cl  0  0  0  0  0  0
  -0.61970   0.66631  -1.44206 Cl  0  0  0  0  0  0
  -3.70407   0.91043  -0.94396 H   0  0  0  0  0  0
  -5.26055  -0.69708  -2.21577 H   0  0  0  0  0  0
  -4.73773  -3.11804  -2.05308 H   0  0  0  0  0  0
  -2.25833  -3.76831  -1.93216 H   0  0  0  0  0  0
  -0.96897  -1.92763  -2.06310 H   0  0  0  0  0  0
  -2.09695  -0.23351   0.12954 H   0  0  0  0  0  0
  1  2  1  0  0  0
  1  6  1  0  0  0
  1  7  1  0  0  0
  2  3  1  0  0  0
  2  8  1  0  0  0
  3  4  1  0  0  0
  3  9  1  0  0  0
  4  5  1  0  0  0
  4 10  1  0  0  0
  5  6  1  0  0  0
  5 11  1  0  0  0
  6 12  1  0  0  0
  1 13  1  0  0  0
  2 14  1  0  0  0
  3 15  1  0  0  0
  4 16  1  0  0  0
  5 17  1  0  0  0
  6 18  1  0  0  0
M  END
