CIP:2S 3R 4R 5S 6R; BB:P-92.2.1.1.3;
__Jmol-14_05301721583D 1   1.00000     0.00000     0
Jmol version 14.17.2  2017-05-27 15:31 EXTRACT: ({0:35})
 36 35  0  0  0  0              1 V2000
  -0.86956  -1.72488   0.57247 C   0  0  0  0  0  0
  -2.18106  -1.07547   0.13244 C   0  0  0  0  0  0
  -3.32551  -2.07232  -0.16988 C   0  0  0  0  0  0
  -4.64898  -1.26216  -0.42727 C   0  0  0  0  0  0
  -5.97705  -2.05491  -0.17602 C   0  0  0  0  0  0
  -7.13196  -1.06770   0.14348 C   0  0  0  0  0  0
  -8.44634  -1.74961   0.53770 C   0  0  0  0  0  0
  -0.06402  -0.77880   1.12288 F   0  0  0  0  0  0
  -1.95143  -0.34678  -0.99498 F   0  0  0  0  0  0
  -2.89581  -3.06450  -1.29836 C   0  0  0  0  0  0
  -2.20998  -4.33179  -0.75056 C   0  0  0  0  0  0
  -2.46608  -6.02379  -1.97386 I   0  0  0  0  0  0
  -4.67930  -0.63674  -1.70762 O   0  0  0  0  0  0
  -6.40219  -3.04014  -1.30459 C   0  0  0  0  0  0
  -7.09524  -4.29797  -0.75045 C   0  0  0  0  0  0
  -6.52077  -5.91363  -1.69014 Br  0  0  0  0  0  0
  -7.38046  -0.29825  -0.95474 F   0  0  0  0  0  0
  -9.57833  -0.59819   1.28938 Cl  0  0  0  0  0  0
  -0.32221  -2.14469  -0.27895 H   0  0  0  0  0  0
  -1.03130  -2.49576   1.33035 H   0  0  0  0  0  0
  -2.48487  -0.36207   0.90922 H   0  0  0  0  0  0
  -3.49326  -2.63883   0.74836 H   0  0  0  0  0  0
  -4.64688  -0.43477   0.29512 H   0  0  0  0  0  0
  -5.80464  -2.63157   0.74130 H   0  0  0  0  0  0
  -6.81859  -0.39038   0.94187 H   0  0  0  0  0  0
  -8.27807  -2.55221   1.26682 H   0  0  0  0  0  0
  -8.95875  -2.15568  -0.33692 H   0  0  0  0  0  0
  -2.22647  -2.57255  -2.00968 H   0  0  0  0  0  0
  -3.74252  -3.35534  -1.90850 H   0  0  0  0  0  0
  -2.58076  -4.56656   0.25274 H   0  0  0  0  0  0
  -1.13642  -4.15331  -0.64116 H   0  0  0  0  0  0
  -3.76705  -0.49607  -2.02503 H   0  0  0  0  0  0
  -5.56599  -3.32724  -1.92909 H   0  0  0  0  0  0
  -7.07913  -2.54170  -2.00871 H   0  0  0  0  0  0
  -8.17634  -4.26159  -0.88714 H   0  0  0  0  0  0
  -6.87319  -4.48912   0.30631 H   0  0  0  0  0  0
  1  2  1  0  0  0
  1  8  1  0  0  0
  2  3  1  0  0  0
  2  9  1  0  0  0
  3  4  1  0  0  0
  3 10  1  0  0  0
  4  5  1  0  0  0
  4 13  1  0  0  0
  5  6  1  0  0  0
  5 14  1  0  0  0
  6  7  1  0  0  0
  6 17  1  0  0  0
  7 18  1  0  0  0
 10 11  1  0  0  0
 11 12  1  0  0  0
 14 15  1  0  0  0
 15 16  1  0  0  0
  1 19  1  0  0  0
  1 20  1  0  0  0
  2 21  1  0  0  0
  3 22  1  0  0  0
  4 23  1  0  0  0
  5 24  1  0  0  0
  6 25  1  0  0  0
  7 26  1  0  0  0
  7 27  1  0  0  0
 10 28  1  0  0  0
 10 29  1  0  0  0
 11 30  1  0  0  0
 11 31  1  0  0  0
 13 32  1  0  0  0
 14 33  1  0  0  0
 14 34  1  0  0  0
 15 35  1  0  0  0
 15 36  1  0  0  0
M  END
