CIP:ZRZESE;BB:P-16.2.4.4, P-16.5.1.7, P-93.4.2.1.1
__Jmol-14_05291700453D 1   1.00000     0.00000     0
Jmol version 14.17.2  2017-05-27 15:31 EXTRACT: ({0:35})
 36 36  0  0  0  0              1 V2000
   0.56993   1.88329  -1.90626 C   0  0  0  0  0  0
   0.63929   0.35358  -1.59102 C   0  0  0  0  0  0
   1.58328   2.93410  -2.32352 C   0  0  0  0  0  0
   1.62277  -0.74559  -2.08231 C   0  0  0  0  0  0
   2.91268   3.10648  -2.30256 C   0  0  0  0  0  0
   3.99616   2.31713  -1.64349 C   0  0  0  0  0  0
   2.93756  -0.34363  -2.62685 C   0  0  0  0  0  0
   4.94641   1.71734  -2.70551 C   0  0  0  0  0  0
   5.35217   0.24028  -2.45181 C   0  0  0  0  0  0
   4.11998  -0.52293  -2.01003 C   0  0  0  0  0  0
   1.00689  -1.53548  -3.08978 O   0  0  0  0  0  0
   6.57610   0.10140  -1.49279 C   0  0  0  0  0  0
   7.78658   0.89673  -2.01760 C   0  0  0  0  0  0
   6.99376  -1.36790  -1.33025 C   0  0  0  0  0  0
   0.07218   2.32732  -1.03812 H   0  0  0  0  0  0
  -0.18894   1.96001  -2.68895 H   0  0  0  0  0  0
  -0.34551   0.00067  -1.92824 H   0  0  0  0  0  0
   0.61108   0.27223  -0.49949 H   0  0  0  0  0  0
   1.06969   3.81446  -2.70727 H   0  0  0  0  0  0
   1.79809  -1.42366  -1.23379 H   0  0  0  0  0  0
   3.29654   3.96862  -2.84109 H   0  0  0  0  0  0
   3.55722   1.60112  -0.94728 H   0  0  0  0  0  0
   4.56759   2.99431  -1.00441 H   0  0  0  0  0  0
   2.88369   0.20256  -3.56574 H   0  0  0  0  0  0
   5.81890   2.36844  -2.80672 H   0  0  0  0  0  0
   4.48708   1.76704  -3.69640 H   0  0  0  0  0  0
   5.66059  -0.18294  -3.41172 H   0  0  0  0  0  0
   4.15500  -1.05862  -1.06300 H   0  0  0  0  0  0
   0.58142  -2.28755  -2.63803 H   0  0  0  0  0  0
   6.32530   0.49205  -0.50191 H   0  0  0  0  0  0
   7.92257   0.75336  -3.09659 H   0  0  0  0  0  0
   8.71569   0.59903  -1.52625 H   0  0  0  0  0  0
   7.67054   1.96636  -1.83212 H   0  0  0  0  0  0
   7.97469  -1.45797  -0.84887 H   0  0  0  0  0  0
   7.04922  -1.88100  -2.29262 H   0  0  0  0  0  0
   6.28562  -1.91411  -0.69805 H   0  0  0  0  0  0
  1  2  1  0  0  0
  1  3  1  0  0  0
  2  4  1  0  0  0
  3  5  2  0  0  0
  4  7  1  0  0  0
  4 11  1  0  0  0
  5  6  1  0  0  0
  6  8  1  0  0  0
  7 10  2  0  0  0
  8  9  1  0  0  0
  9 10  1  0  0  0
  9 12  1  0  0  0
 12 13  1  0  0  0
 12 14  1  0  0  0
  1 15  1  0  0  0
  1 16  1  0  0  0
  2 17  1  0  0  0
  2 18  1  0  0  0
  3 19  1  0  0  0
  4 20  1  0  0  0
  5 21  1  0  0  0
  6 22  1  0  0  0
  6 23  1  0  0  0
  7 24  1  0  0  0
  8 25  1  0  0  0
  8 26  1  0  0  0
  9 27  1  0  0  0
 10 28  1  0  0  0
 11 29  1  0  0  0
 12 30  1  0  0  0
 13 31  1  0  0  0
 13 32  1  0  0  0
 13 33  1  0  0  0
 14 34  1  0  0  0
 14 35  1  0  0  0
 14 36  1  0  0  0
M  END
