CIP:2S 4S; BB:P-93.4.1.2;
__Jmol-14_05301721583D 1   1.00000     0.00000     0
Jmol version 14.17.2  2017-05-27 15:31 EXTRACT: ({0:16})
 17 16  0  0  0  0              1 V2000
   0.69694   1.38585  -0.19933 C   0  0  0  0  0  0
   1.77792   2.26368  -0.82223 C   0  0  0  0  0  0
   3.07846   1.45805  -1.05816 C   0  0  0  0  0  0
   4.29293   2.37546  -1.32912 C   0  0  0  0  0  0
   5.55121   1.75376  -1.95574 C   0  0  0  0  0  0
   0.80821   0.18221  -0.01711 O   0  0  0  0  0  0
  -0.41012   2.05662   0.20958 O   0  0  0  0  0  0
   6.38974   2.43663  -2.52726 O   0  0  0  0  0  0
   5.74306   0.41265  -1.81792 O   0  0  0  0  0  0
   1.11684   3.04453  -2.30865 Cl  0  0  0  0  0  0
   2.86067   0.24464  -2.38497 Cl  0  0  0  0  0  0
   4.80049   3.16291   0.20698 Cl  0  0  0  0  0  0
   1.96458   3.07548  -0.11020 H   0  0  0  0  0  0
   3.28894   0.87505  -0.15217 H   0  0  0  0  0  0
   3.99405   3.18141  -2.00257 H   0  0  0  0  0  0
  -0.41559   3.01083  -0.01695 H   0  0  0  0  0  0
   4.98193  -0.12051  -1.50379 H   0  0  0  0  0  0
  1  2  1  0  0  0
  1  7  1  0  0  0
  1  6  2  0  0  0
  2  3  1  0  0  0
  2 10  1  0  0  0
  3  4  1  0  0  0
  3 11  1  0  0  0
  4  5  1  0  0  0
  4 12  1  0  0  0
  5  9  1  0  0  0
  5  8  2  0  0  0
  2 13  1  0  0  0
  3 14  1  0  0  0
  4 15  1  0  0  0
  7 16  1  0  0  0
  9 17  1  0  0  0
M  END
