CIP:ZZREE;BB:P-16.2.4.4, P-16.5.1.7, P-93.4.2.1.1
__Jmol-14_05291700433D 1   1.00000     0.00000     0
Jmol version 14.17.2  2017-05-27 15:31 EXTRACT: ({0:37})
 38 37  0  0  0  0              1 V2000
   0.69555   3.31957  -1.29938 C   0  0  0  0  0  0
   0.55391   1.84165  -1.10515 C   0  0  0  0  0  0
  -0.61359   1.20731  -0.92694 C   0  0  0  0  0  0
  -1.91203   1.92962  -0.92033 C   0  0  0  0  0  0
  -3.04120   1.06825  -1.43961 C   0  0  0  0  0  0
  -4.28256   1.91322  -1.31618 C   0  0  0  0  0  0
  -5.54158   1.17802  -1.70080 C   0  0  0  0  0  0
  -6.66356   2.15911  -1.44294 C   0  0  0  0  0  0
  -8.00860   1.54611  -1.71329 C   0  0  0  0  0  0
  -9.07064   2.55583  -1.33657 C   0  0  0  0  0  0
 -10.40501   2.00927  -1.67948 C   0  0  0  0  0  0
 -11.52356   2.71992  -1.52866 C   0  0  0  0  0  0
 -12.84689   2.16606  -1.90577 C   0  0  0  0  0  0
  -5.51228   0.81224  -3.08305 O   0  0  0  0  0  0
  -0.10595   3.89262  -0.81958 H   0  0  0  0  0  0
   0.70031   3.56052  -2.36679 H   0  0  0  0  0  0
   1.63274   3.66876  -0.85961 H   0  0  0  0  0  0
   1.46622   1.25581  -1.09331 H   0  0  0  0  0  0
  -0.63784   0.13423  -0.77251 H   0  0  0  0  0  0
  -1.86778   2.83070  -1.54056 H   0  0  0  0  0  0
  -2.12484   2.24329   0.10598 H   0  0  0  0  0  0
  -3.14250   0.15273  -0.85172 H   0  0  0  0  0  0
  -2.86454   0.77978  -2.48498 H   0  0  0  0  0  0
  -4.16937   2.79977  -1.94940 H   0  0  0  0  0  0
  -4.37513   2.26595  -0.27760 H   0  0  0  0  0  0
  -5.67352   0.26867  -1.09933 H   0  0  0  0  0  0
  -6.54326   3.04348  -2.08803 H   0  0  0  0  0  0
  -6.62680   2.50612  -0.40487 H   0  0  0  0  0  0
  -8.12656   0.62794  -1.13021 H   0  0  0  0  0  0
  -8.08975   1.27309  -2.77404 H   0  0  0  0  0  0
  -8.90321   3.49604  -1.87297 H   0  0  0  0  0  0
  -9.01687   2.76648  -0.25867 H   0  0  0  0  0  0
 -10.45869   1.00054  -2.08574 H   0  0  0  0  0  0
 -11.47997   3.73167  -1.12920 H   0  0  0  0  0  0
 -13.05055   1.24297  -1.35136 H   0  0  0  0  0  0
 -12.88138   1.95701  -2.98046 H   0  0  0  0  0  0
 -13.63462   2.88374  -1.67258 H   0  0  0  0  0  0
  -4.93147   0.04103  -3.17606 H   0  0  0  0  0  0
  1  2  1  0  0  0
  2  3  2  0  0  0
  3  4  1  0  0  0
  4  5  1  0  0  0
  5  6  1  0  0  0
  6  7  1  0  0  0
  7  8  1  0  0  0
  7 14  1  0  0  0
  8  9  1  0  0  0
  9 10  1  0  0  0
 10 11  1  0  0  0
 11 12  2  0  0  0
 12 13  1  0  0  0
  1 15  1  0  0  0
  1 16  1  0  0  0
  1 17  1  0  0  0
  2 18  1  0  0  0
  3 19  1  0  0  0
  4 20  1  0  0  0
  4 21  1  0  0  0
  5 22  1  0  0  0
  5 23  1  0  0  0
  6 24  1  0  0  0
  6 25  1  0  0  0
  7 26  1  0  0  0
  8 27  1  0  0  0
  8 28  1  0  0  0
  9 29  1  0  0  0
  9 30  1  0  0  0
 10 31  1  0  0  0
 10 32  1  0  0  0
 11 33  1  0  0  0
 12 34  1  0  0  0
 13 35  1  0  0  0
 13 36  1  0  0  0
 13 37  1  0  0  0
 14 38  1  0  0  0
M  END
