CIP:2R 3R 6S 12S; BB:P-93.1.2.2;
__Jmol-14_05301721583D 1   1.00000     0.00000     0
Jmol version 14.17.2  2017-05-27 15:31 EXTRACT: ({0:32})
 33 33  0  0  0  0              1 V2000
  -1.04822   5.80264  -2.55564 C   0  0  0  0  0  0
  -2.30709   6.61960  -2.42937 C   0  0  0  0  0  0
  -0.92731   4.65155  -1.52677 C   0  0  0  0  0  0
  -3.45495   5.71089  -2.74896 C   0  0  0  0  0  0
  -2.18408   3.76984  -1.52930 C   0  0  0  0  0  0
  -3.52440   4.50563  -1.79438 C   0  0  0  0  0  0
   0.17375   3.77517  -1.84906 O   0  0  0  0  0  0
  -2.46933   7.36079  -0.80129 Cl  0  0  0  0  0  0
  -4.52799   3.50679  -2.34863 N   0  3  0  0  0  0
  -4.74754   2.50516  -1.66873 O   0  5  0  0  0  0
  -5.07946   3.76014  -3.42797 O   0  0  0  0  0  0
   1.56177   4.19028  -1.66319 C   0  0  0  0  0  0
   1.75871   5.72943  -1.69873 C   0  0  0  0  0  0
   3.06789   6.44161  -1.47373 C   0  0  0  0  0  0
   2.26275   3.45611  -2.80136 C   0  0  0  0  0  0
  -0.27001   6.54326  -2.47829 H   0  0  0  0  0  0
  -0.94811   5.39233  -3.56681 H   0  0  0  0  0  0
  -2.27084   7.45007  -3.14424 H   0  0  0  0  0  0
  -0.77542   5.03782  -0.51079 H   0  0  0  0  0  0
  -3.31437   5.37426  -3.78786 H   0  0  0  0  0  0
  -4.39649   6.27241  -2.73392 H   0  0  0  0  0  0
  -2.24624   3.26317  -0.55591 H   0  0  0  0  0  0
  -2.04701   2.93517  -2.22868 H   0  0  0  0  0  0
  -3.95214   4.83114  -0.83623 H   0  0  0  0  0  0
   1.90067   3.78905  -0.70381 H   0  0  0  0  0  0
   1.07554   6.17703  -0.97360 H   0  0  0  0  0  0
   1.48638   6.04881  -2.70696 H   0  0  0  0  0  0
   3.77942   6.24431  -2.27582 H   0  0  0  0  0  0
   2.84150   7.51922  -1.50635 H   0  0  0  0  0  0
   3.51110   6.23592  -0.49623 H   0  0  0  0  0  0
   3.35015   3.49050  -2.72913 H   0  0  0  0  0  0
   1.96123   3.87104  -3.77262 H   0  0  0  0  0  0
   1.95362   2.40387  -2.82845 H   0  0  0  0  0  0
  1  2  1  0  0  0
  1  3  1  0  0  0
  2  4  1  0  0  0
  2  8  1  0  0  0
  3  5  1  0  0  0
  3  7  1  0  0  0
  4  6  1  0  0  0
  5  6  1  0  0  0
  6  9  1  0  0  0
  7 12  1  0  0  0
  9 10  1  0  0  0
  9 11  2  0  0  0
 12 13  1  0  0  0
 12 15  1  0  0  0
 13 14  1  0  0  0
  1 16  1  0  0  0
  1 17  1  0  0  0
  2 18  1  0  0  0
  3 19  1  0  0  0
  4 20  1  0  0  0
  4 21  1  0  0  0
  5 22  1  0  0  0
  5 23  1  0  0  0
  6 24  1  0  0  0
 12 25  1  0  0  0
 13 26  1  0  0  0
 13 27  1  0  0  0
 14 28  1  0  0  0
 14 29  1  0  0  0
 14 30  1  0  0  0
 15 31  1  0  0  0
 15 32  1  0  0  0
 15 33  1  0  0  0
M  END
