CIP:4R 13R; BB:P-93.1.1.1.3;
__Jmol-14_05301721583D 1   1.00000     0.00000     0
Jmol version 14.17.2  2017-05-27 15:31 EXTRACT: ({0:30})
 31 31  0  0  0  0              1 V2000
  -7.00180   4.79788   1.58113 C   0  0  0  0  0  0
  -6.80171   5.74066   2.33600 O   0  0  0  0  0  0
  -8.20194   4.70462   0.98055 O   0  0  0  0  0  0
  -6.09329   3.60550   1.25748 C   0  0  0  0  0  0
  -6.62294   2.25524   2.31849 Cl  0  0  0  0  0  0
  -2.64553   4.88089   2.39077 C   0  0  0  0  0  0
  -1.75988   3.94470   1.69923 C   0  0  0  0  0  0
  -2.33920   2.95023   0.99636 C   0  0  0  0  0  0
  -3.76800   2.84711   0.85899 C   0  0  0  0  0  0
  -4.58457   3.78093   1.38958 C   0  0  0  0  0  0
  -3.96864   4.86343   2.15712 C   0  0  0  0  0  0
   0.34746   5.32600   2.43473 C   0  0  0  0  0  0
  -0.30157   4.35315   1.42952 C   0  0  0  0  0  0
   0.65573   3.15189   1.06956 C   0  0  0  0  0  0
   1.79205   2.86111   2.03989 C   0  0  0  0  0  0
  -0.43767   5.14274   0.24588 O   0  0  0  0  0  0
  -8.70951   5.44321   1.36842 H   0  0  0  0  0  0
  -6.31366   3.31352   0.22487 H   0  0  0  0  0  0
  -2.24091   5.65788   3.02509 H   0  0  0  0  0  0
  -1.78060   2.29256   0.33822 H   0  0  0  0  0  0
  -4.14867   2.00537   0.29200 H   0  0  0  0  0  0
  -4.56245   5.67005   2.56804 H   0  0  0  0  0  0
  -0.24383   6.23783   2.58451 H   0  0  0  0  0  0
   1.29569   5.69788   2.03030 H   0  0  0  0  0  0
   0.52718   4.87396   3.41333 H   0  0  0  0  0  0
   1.08781   3.30907   0.07816 H   0  0  0  0  0  0
   0.11771   2.20736   0.99487 H   0  0  0  0  0  0
   1.41283   2.61697   3.03409 H   0  0  0  0  0  0
   2.48476   3.70019   2.11840 H   0  0  0  0  0  0
   2.37058   2.00042   1.68561 H   0  0  0  0  0  0
  -1.19903   5.73570   0.40292 H   0  0  0  0  0  0
  1  2  2  0  0  0
  1  3  1  0  0  0
  1  4  1  0  0  0
  4  5  1  0  0  0
  4 10  1  0  0  0
  6 11  2  0  0  0
  6  7  1  0  0  0
  7  8  2  0  0  0
  7 13  1  0  0  0
  8  9  1  0  0  0
  9 10  2  0  0  0
 10 11  1  0  0  0
 12 13  1  0  0  0
 13 14  1  0  0  0
 13 16  1  0  0  0
 14 15  1  0  0  0
  3 17  1  0  0  0
  4 18  1  0  0  0
  6 19  1  0  0  0
  8 20  1  0  0  0
  9 21  1  0  0  0
 11 22  1  0  0  0
 12 23  1  0  0  0
 12 24  1  0  0  0
 12 25  1  0  0  0
 14 26  1  0  0  0
 14 27  1  0  0  0
 15 28  1  0  0  0
 15 29  1  0  0  0
 15 30  1  0  0  0
 16 31  1  0  0  0
M  END
