CIP:ZZ;BB:P-16.2.4.4, P-16.5.1.7, P-93.4.2.1.1
__Jmol-14_05291700443D 1   1.00000     0.00000     0
Jmol version 14.17.2  2017-05-27 15:31 EXTRACT: ({0:13})
 14 13  0  0  0  0              1 V2000
   2.01837  -0.81973   0.92519 C   0  0  0  0  0  0
   3.21957  -0.82709   0.92778 C   0  0  0  0  0  0
   0.72419  -0.73986   0.89678 C   0  0  0  0  0  0
  -0.02762   0.47347   0.46899 C   0  0  0  0  0  0
   4.51703  -0.76757   0.90640 C   0  0  0  0  0  0
   5.07990  -1.63655   1.22343 H   0  0  0  0  0  0
   5.29273   0.42692   0.47138 C   0  0  0  0  0  0
   0.14250  -1.60293   1.20065 H   0  0  0  0  0  0
  -0.66353   0.83020   1.28357 H   0  0  0  0  0  0
  -0.66334   0.24051  -0.38937 H   0  0  0  0  0  0
   0.64612   1.28828   0.18185 H   0  0  0  0  0  0
   5.93113   0.17259  -0.37964 H   0  0  0  0  0  0
   5.93105   0.77951   1.28667 H   0  0  0  0  0  0
   4.63883   1.25249   0.17067 H   0  0  0  0  0  0
  1  2  2  0  0  0
  1  3  2  0  0  0
  2  5  2  0  0  0
  3  4  1  0  0  0
  3  8  1  0  0  0
  5  6  1  0  0  0
  5  7  1  0  0  0
  4  9  1  0  0  0
  4 10  1  0  0  0
  4 11  1  0  0  0
  7 12  1  0  0  0
  7 13  1  0  0  0
  7 14  1  0  0  0
M  END
