CIP:EsEs;BB:P-16.2.4.4, P-16.5.1.7, P-93.4.2.1.1
__Jmol-14_05291700453D 1   1.00000     0.00000     0
Jmol version 14.17.2  2017-05-27 15:31 EXTRACT: ({0:43})
 44 45  0  0  0  0              1 V2000
  -4.66922   0.74842   0.46487 C   0  0  0  0  0  0
  -3.90429   2.05085   0.34071 C   0  0  0  0  0  0
  -3.88868  -0.51281   0.72119 C   0  0  0  0  0  0
  -2.49052   2.03164   0.90834 C   0  0  0  0  0  0
  -2.48046  -0.48944   0.22747 C   0  0  0  0  0  0
  -1.68731   0.74365   0.66753 C   0  0  0  0  0  0
  -6.01241   0.66800   0.37403 C   0  0  0  0  0  0
  -6.66368  -0.67741   0.61813 C   0  0  0  0  0  0
  -6.84979   1.88095   0.07406 C   0  0  0  0  0  0
  -8.14945  -0.83770   0.48047 C   0  0  0  0  0  0
  -8.29577   1.80719   0.50385 C   0  0  0  0  0  0
  -8.98599   0.43500   0.50661 C   0  0  0  0  0  0
  -0.76566   0.35717   1.83133 C   0  0  0  0  0  0
   0.48648  -0.25826   1.22845 C   0  0  0  0  0  0
 -10.03683   0.39318   1.62350 C   0  0  0  0  0  0
 -11.21728   1.23899   1.17833 C   0  0  0  0  0  0
  -4.42742   2.85710   0.87195 H   0  0  0  0  0  0
  -3.87607   2.35590  -0.71252 H   0  0  0  0  0  0
  -4.32252  -1.37403   0.20803 H   0  0  0  0  0  0
  -3.92226  -0.74242   1.79358 H   0  0  0  0  0  0
  -2.51195   2.31807   1.96704 H   0  0  0  0  0  0
  -1.94435   2.84938   0.42441 H   0  0  0  0  0  0
  -2.48349  -0.53846  -0.86336 H   0  0  0  0  0  0
  -2.01504  -1.42201   0.57121 H   0  0  0  0  0  0
  -1.04486   0.98373  -0.18812 H   0  0  0  0  0  0
  -6.39786  -1.00479   1.62935 H   0  0  0  0  0  0
  -6.24968  -1.41977  -0.07590 H   0  0  0  0  0  0
  -6.79865   2.09914  -0.99830 H   0  0  0  0  0  0
  -6.44574   2.76872   0.56913 H   0  0  0  0  0  0
  -8.48184  -1.57112   1.21768 H   0  0  0  0  0  0
  -8.33135  -1.33141  -0.48401 H   0  0  0  0  0  0
  -8.86167   2.46165  -0.16985 H   0  0  0  0  0  0
  -8.37991   2.28846   1.48574 H   0  0  0  0  0  0
  -9.52712   0.38213  -0.44153 H   0  0  0  0  0  0
  -1.25205  -0.35294   2.51241 H   0  0  0  0  0  0
  -0.48414   1.22753   2.43918 H   0  0  0  0  0  0
   1.05595   0.51140   0.70381 H   0  0  0  0  0  0
   0.23469  -1.03168   0.49108 H   0  0  0  0  0  0
   1.12855  -0.70747   1.99027 H   0  0  0  0  0  0
  -9.63026   0.76890   2.57025 H   0  0  0  0  0  0
 -10.38034  -0.62338   1.81776 H   0  0  0  0  0  0
 -11.56805   0.88852   0.20166 H   0  0  0  0  0  0
 -10.94184   2.29010   1.07698 H   0  0  0  0  0  0
 -12.04086   1.16564   1.89176 H   0  0  0  0  0  0
  1  2  1  0  0  0
  1  3  1  0  0  0
  1  7  2  0  0  0
  2  4  1  0  0  0
  3  5  1  0  0  0
  4  6  1  0  0  0
  5  6  1  0  0  0
  6 13  1  0  0  0
  7  8  1  0  0  0
  7  9  1  0  0  0
  8 10  1  0  0  0
  9 11  1  0  0  0
 10 12  1  0  0  0
 11 12  1  0  0  0
 12 15  1  0  0  0
 13 14  1  0  0  0
 15 16  1  0  0  0
  2 17  1  0  0  0
  2 18  1  0  0  0
  3 19  1  0  0  0
  3 20  1  0  0  0
  4 21  1  0  0  0
  4 22  1  0  0  0
  5 23  1  0  0  0
  5 24  1  0  0  0
  6 25  1  0  0  0
  8 26  1  0  0  0
  8 27  1  0  0  0
  9 28  1  0  0  0
  9 29  1  0  0  0
 10 30  1  0  0  0
 10 31  1  0  0  0
 11 32  1  0  0  0
 11 33  1  0  0  0
 12 34  1  0  0  0
 13 35  1  0  0  0
 13 36  1  0  0  0
 14 37  1  0  0  0
 14 38  1  0  0  0
 14 39  1  0  0  0
 15 40  1  0  0  0
 15 41  1  0  0  0
 16 42  1  0  0  0
 16 43  1  0  0  0
 16 44  1  0  0  0
M  END
