CIP:RRSS;BB:P-16.2.4.4, P-16.5.1.7, P-93.4.2.1.1
__Jmol-14_05291700453D 1   1.00000     0.00000     0
Jmol version 14.17.2  2017-05-27 15:31 EXTRACT: ({0:22})
 23 24  0  0  0  0              1 V2000
   2.11545  -1.42500   2.09894 C   0  0  0  0  0  0
   2.07899   0.06131   1.57437 C   0  0  0  0  0  0
   1.99343  -2.02999   0.76081 C   0  0  0  0  0  0
   3.33562  -2.26802   2.49755 C   0  0  0  0  0  0
   3.48273  -1.28212   0.56255 C   0  0  0  0  0  0
   3.46505   0.19517   1.15242 C   0  0  0  0  0  0
   4.26723  -2.11126   1.50684 C   0  0  0  0  0  0
   2.09231  -3.08520   0.68389 H   0  0  0  0  0  0
   0.42474  -1.79540   0.53769 C   0  0  0  0  0  0
   4.05022   0.76713   2.49944 C   0  0  0  0  0  0
   3.74180   1.53185  -0.26751 Br  0  0  0  0  0  0
   3.89178  -1.39121  -0.48370 H   0  0  0  0  0  0
   1.27736  -1.64481   2.78394 H   0  0  0  0  0  0
   1.69495   0.81054   2.28936 H   0  0  0  0  0  0
   1.46828   0.28715   0.64913 H   0  0  0  0  0  0
   3.38658  -3.04143   3.23178 H   0  0  0  0  0  0
   5.20516  -2.62627   1.37338 H   0  0  0  0  0  0
  -0.13726  -2.59647   1.00618 H   0  0  0  0  0  0
   0.12675  -1.74286  -0.52128 H   0  0  0  0  0  0
  -0.05644  -0.87838   0.99876 H   0  0  0  0  0  0
   3.64424   1.76212   2.68071 H   0  0  0  0  0  0
   5.10967   0.85073   2.48489 H   0  0  0  0  0  0
   3.76075   0.16671   3.40525 H   0  0  0  0  0  0
  1  2  1  0  0  0
  1  3  1  0  0  0
  1  4  1  0  0  0
  1 13  1  0  0  0
  2  6  1  0  0  0
  3  5  1  0  0  0
  3  8  1  0  0  0
  3  9  1  0  0  0
  4  7  2  0  0  0
  5  6  1  0  0  0
  5  7  1  0  0  0
  5 12  1  0  0  0
  6 10  1  0  0  0
  6 11  1  0  0  0
  2 14  1  0  0  0
  2 15  1  0  0  0
  4 16  1  0  0  0
  7 17  1  0  0  0
  9 18  1  0  0  0
  9 19  1  0  0  0
  9 20  1  0  0  0
 10 21  1  0  0  0
 10 22  1  0  0  0
 10 23  1  0  0  0
M  END
