CIP:SEE;BB:P-16.2.4.4, P-16.5.1.7, P-93.4.2.1.1
__Jmol-14_05291700463D 1   1.00000     0.00000     0
Jmol version 14.17.2  2017-05-27 15:31 EXTRACT: ({0:50})
 51 53  0  0  0  0              1 V2000
  -3.01097  -0.92559  -0.69585 N   0  0  0  0  0  0
  -2.68076  -2.33831  -0.54386 C   0  0  0  0  0  0
  -2.06752   0.07713  -0.63931 C   0  0  0  0  0  0
  -1.33705  -2.60084  -1.23178 C   0  0  0  0  0  0
  -0.75995  -0.20545  -0.63955 C   0  0  0  0  0  0
  -0.25522  -1.61672  -0.76981 C   0  0  0  0  0  0
  -2.57772   1.43894  -0.55562 C   0  0  0  0  0  0
  -3.74241   1.80501  -1.12561 C   0  0  0  0  0  0
  -4.35986   3.17930  -1.09627 C   0  0  0  0  0  0
  -5.82080   3.19952  -1.61275 C   0  0  0  0  0  0
  -6.88826   3.08719  -0.49603 C   0  0  0  0  0  0
  -8.05427   2.11977  -0.70383 C   0  0  0  0  0  0
  -3.81093  -3.17902  -1.16302 C   0  0  0  0  0  0
  -5.14750  -3.06331  -0.40772 C   0  0  0  0  0  0
  -6.25574  -2.42464  -1.25110 C   0  0  0  0  0  0
  -7.57016  -2.33309  -0.46436 C   0  0  0  0  0  0
  -8.71412  -1.65934  -1.23825 C   0  0  0  0  0  0
  -8.91380  -0.17354  -0.98974 C   0  0  0  0  0  0
  -9.38038   2.55637  -0.54085 C   0  0  0  0  0  0
 -10.45298   1.66558  -0.61551 C   0  0  0  0  0  0
 -10.21892   0.31764  -0.84303 C   0  0  0  0  0  0
  -7.84604   0.75383  -0.92989 C   0  0  0  0  0  0
  -3.89003  -0.65189  -0.26782 H   0  0  0  0  0  0
  -2.58989  -2.57087   0.52616 H   0  0  0  0  0  0
  -1.45448  -2.50403  -2.32008 H   0  0  0  0  0  0
  -1.00635  -3.63188  -1.05179 H   0  0  0  0  0  0
  -0.01919   0.58553  -0.57008 H   0  0  0  0  0  0
   0.57866  -1.64478  -1.47435 H   0  0  0  0  0  0
   0.14155  -1.93374   0.20330 H   0  0  0  0  0  0
  -1.97220   2.16816  -0.02805 H   0  0  0  0  0  0
  -4.27475   1.06849  -1.71624 H   0  0  0  0  0  0
  -3.75748   3.81836  -1.75381 H   0  0  0  0  0  0
  -4.29286   3.60813  -0.09228 H   0  0  0  0  0  0
  -5.97126   2.46021  -2.40359 H   0  0  0  0  0  0
  -5.97294   4.16951  -2.10475 H   0  0  0  0  0  0
  -7.29818   4.09107  -0.34944 H   0  0  0  0  0  0
  -6.42062   2.82360   0.45743 H   0  0  0  0  0  0
  -3.50460  -4.23191  -1.16064 H   0  0  0  0  0  0
  -3.94307  -2.90836  -2.22025 H   0  0  0  0  0  0
  -5.02531  -2.50408   0.52820 H   0  0  0  0  0  0
  -5.46864  -4.06580  -0.11445 H   0  0  0  0  0  0
  -6.41847  -3.02508  -2.15735 H   0  0  0  0  0  0
  -5.93292  -1.44016  -1.59008 H   0  0  0  0  0  0
  -7.40857  -1.83585   0.50075 H   0  0  0  0  0  0
  -7.87994  -3.35816  -0.22560 H   0  0  0  0  0  0
  -9.63886  -2.17780  -0.94764 H   0  0  0  0  0  0
  -8.60693  -1.82606  -2.31392 H   0  0  0  0  0  0
  -9.59020   3.59815  -0.33327 H   0  0  0  0  0  0
 -11.46717   2.02597  -0.47982 H   0  0  0  0  0  0
 -11.07196  -0.35913  -0.89380 H   0  0  0  0  0  0
  -6.82482   0.40524  -1.03253 H   0  0  0  0  0  0
  1  2  1  0  0  0
  1  3  1  0  0  0
  2  4  1  0  0  0
  2 13  1  0  0  0
  3  5  2  0  0  0
  3  7  1  0  0  0
  4  6  1  0  0  0
  5  6  1  0  0  0
  7  8  2  0  0  0
  8  9  1  0  0  0
  9 10  1  0  0  0
 10 11  1  0  0  0
 11 12  1  0  0  0
 12 19  2  0  0  0
 12 22  1  0  0  0
 13 14  1  0  0  0
 14 15  1  0  0  0
 15 16  1  0  0  0
 16 17  1  0  0  0
 17 18  1  0  0  0
 18 21  1  0  0  0
 18 22  2  0  0  0
 19 20  1  0  0  0
 20 21  2  0  0  0
  1 23  1  0  0  0
  2 24  1  0  0  0
  4 25  1  0  0  0
  4 26  1  0  0  0
  5 27  1  0  0  0
  6 28  1  0  0  0
  6 29  1  0  0  0
  7 30  1  0  0  0
  8 31  1  0  0  0
  9 32  1  0  0  0
  9 33  1  0  0  0
 10 34  1  0  0  0
 10 35  1  0  0  0
 11 36  1  0  0  0
 11 37  1  0  0  0
 13 38  1  0  0  0
 13 39  1  0  0  0
 14 40  1  0  0  0
 14 41  1  0  0  0
 15 42  1  0  0  0
 15 43  1  0  0  0
 16 44  1  0  0  0
 16 45  1  0  0  0
 17 46  1  0  0  0
 17 47  1  0  0  0
 19 48  1  0  0  0
 20 49  1  0  0  0
 21 50  1  0  0  0
 22 51  1  0  0  0
M  END
