CIP:RS;BB:P-16.2.4.4, P-16.5.1.7, P-93.4.2.1.1
__Jmol-14_05291700433D 1   1.00000     0.00000     0
Jmol version 14.17.2  2017-05-27 15:31 EXTRACT: ({0:17})
 18 18  0  0  0  0              1 V2000
   3.08869   0.23948  -0.09186 C   0  0  0  0  0  0
   2.25239   1.51373   0.09631 C   0  0  0  0  0  0
   4.51299   0.69476  -0.38599 C   0  0  0  0  0  0
   3.22599   2.67549  -0.11404 C   0  0  0  0  0  0
   4.60283   2.10776   0.13883 C   0  0  0  0  0  0
   1.86726   1.51601   1.12432 H   0  0  0  0  0  0
   1.01475   1.61792  -0.79198 C   0  0  0  0  0  0
   2.87156   4.04331   0.99173 Cl  0  0  0  0  0  0
   3.18881   3.07270  -1.13776 H   0  0  0  0  0  0
   0.19112   0.73435  -0.97737 O   0  0  0  0  0  0
   0.82870   2.86690  -1.26880 O   0  0  0  0  0  0
   2.72431  -0.43294  -0.87591 H   0  0  0  0  0  0
   3.08371  -0.33595   0.83872 H   0  0  0  0  0  0
   4.69795   0.67839  -1.46277 H   0  0  0  0  0  0
   5.25881   0.04409   0.08660 H   0  0  0  0  0  0
   5.37830   2.68389  -0.38235 H   0  0  0  0  0  0
   4.85338   2.10326   1.20680 H   0  0  0  0  0  0
   0.20275   3.33863  -0.68053 H   0  0  0  0  0  0
  1  2  1  0  0  0
  1  3  1  0  0  0
  2  4  1  0  0  0
  2  6  1  0  0  0
  2  7  1  0  0  0
  3  5  1  0  0  0
  4  5  1  0  0  0
  4  8  1  0  0  0
  4  9  1  0  0  0
  7 10  2  0  0  0
  7 11  1  0  0  0
  1 12  1  0  0  0
  1 13  1  0  0  0
  3 14  1  0  0  0
  3 15  1  0  0  0
  5 16  1  0  0  0
  5 17  1  0  0  0
 11 18  1  0  0  0
M  END
