CIP:1S; BB:P-92.2.2;
__Jmol-14_05301721583D 1   1.00000     0.00000     0
Jmol version 14.17.2  2017-05-27 15:31 EXTRACT: ({0:67})
 68 72  0  0  0  0              1 V2000
   5.33656  -1.52301   3.10369 C   0  0  0  0  0  0
   6.40253  -0.58293   2.15621 C   0  0  0  0  0  0
   5.52109   0.76380   2.62933 C   0  0  0  0  0  0
   5.11401   2.19377   2.00869 C   0  0  0  0  0  0
   5.88837  -2.73996   3.54578 O   0  0  0  0  0  0
   3.76454  -1.94860   2.42187 C   0  0  0  0  0  0
   2.94843  -3.37333   3.56179 C   0  0  0  0  0  0
   1.66650  -3.63094   2.68839 C   0  0  0  0  0  0
   1.77463  -3.24571   1.13301 C   0  0  0  0  0  0
   1.68625  -1.70304   0.60779 C   0  0  0  0  0  0
   2.97934  -0.87949   0.96640 C   0  0  0  0  0  0
   4.19411  -2.84572   1.38048 C   0  0  0  0  0  0
   3.12586  -3.71675   0.67565 C   0  0  0  0  0  0
   3.58573   2.51235   2.17026 C   0  0  0  0  0  0
   2.71506   2.42826   0.87425 C   0  0  0  0  0  0
   3.13495   3.78808   1.43000 C   0  0  0  0  0  0
   7.81642  -1.35349   2.58299 C   0  0  0  0  0  0
   8.23105  -2.74555   1.93046 C   0  0  0  0  0  0
   9.76614  -3.18948   2.03369 C   0  0  0  0  0  0
  10.25775  -4.26692   3.06445 C   0  0  0  0  0  0
  10.49633  -2.77737   3.35071 C   0  0  0  0  0  0
   7.28272   0.40135   1.21131 C   0  0  0  0  0  0
   8.32317   1.39109   1.97892 C   0  0  0  0  0  0
   9.16179   2.10355   0.90657 C   0  0  0  0  0  0
   9.07380   3.61894   1.02843 C   0  0  0  0  0  0
  10.31321   2.92353   1.48299 C   0  0  0  0  0  0
   5.09347  -1.00742   4.10631 H   0  0  0  0  0  0
   5.61925   0.96265   3.69048 H   0  0  0  0  0  0
   4.49151   0.43440   2.46150 H   0  0  0  0  0  0
   5.33689   2.25932   0.96855 H   0  0  0  0  0  0
   5.71300   2.99960   2.51853 H   0  0  0  0  0  0
   6.32781  -2.63657   4.39231 H   0  0  0  0  0  0
   2.77170  -3.13928   4.60338 H   0  0  0  0  0  0
   3.64622  -4.25307   3.51525 H   0  0  0  0  0  0
   0.84444  -3.00564   3.10389 H   0  0  0  0  0  0
   1.36684  -4.72511   2.85164 H   0  0  0  0  0  0
   0.84734  -1.28963   1.15005 H   0  0  0  0  0  0
   1.49231  -1.63221  -0.48010 H   0  0  0  0  0  0
   3.69644  -0.80183   0.08895 H   0  0  0  0  0  0
   2.68361   0.10759   1.25606 H   0  0  0  0  0  0
   3.61421  -2.14722   2.22555 H   0  0  0  0  0  0
   5.00016  -3.53639   1.60025 H   0  0  0  0  0  0
   3.27506  -3.66184  -0.40803 H   0  0  0  0  0  0
   3.23266  -4.74747   1.00052 H   0  0  0  0  0  0
   3.10617   2.52300   3.15132 H   0  0  0  0  0  0
   1.67649   2.07557   1.22417 H   0  0  0  0  0  0
   3.27262   1.98962   0.05323 H   0  0  0  0  0  0
   3.75729   4.20764   0.59354 H   0  0  0  0  0  0
   2.18507   4.27312   1.71404 H   0  0  0  0  0  0
   7.90339  -1.39683   3.69084 H   0  0  0  0  0  0
   8.83267  -0.88782   2.38353 H   0  0  0  0  0  0
   8.03332  -2.65048   0.79266 H   0  0  0  0  0  0
   7.59924  -3.57384   2.26983 H   0  0  0  0  0  0
  10.45359  -2.77253   1.28758 H   0  0  0  0  0  0
  11.12468  -4.81119   2.70947 H   0  0  0  0  0  0
   9.35704  -4.72129   3.58390 H   0  0  0  0  0  0
   9.89864  -2.56471   4.27926 H   0  0  0  0  0  0
  11.57493  -2.61521   3.29838 H   0  0  0  0  0  0
   6.69924   0.91014   0.42939 H   0  0  0  0  0  0
   7.89373  -0.20029   0.52359 H   0  0  0  0  0  0
   9.01476   1.00416   2.73698 H   0  0  0  0  0  0
   7.71758   2.15383   2.58724 H   0  0  0  0  0  0
   9.70921   1.44095   0.14828 H   0  0  0  0  0  0
   8.50279   4.06574   1.92609 H   0  0  0  0  0  0
   9.08277   4.10047   0.06560 H   0  0  0  0  0  0
  11.16101   3.15703   0.74561 H   0  0  0  0  0  0
  10.48935   2.75150   2.53747 H   0  0  0  0  0  0
   0.86024  -3.70626   0.73077 H   0  0  0  0  0  0
  1  2  1  0  0  0
  1  5  1  0  0  0
  1  6  1  0  0  0
  2  3  1  0  0  0
  2 17  1  0  0  0
  2 22  1  0  0  0
  3  4  1  0  0  0
  4 14  1  0  0  0
  6  7  1  0  0  0
  6 11  1  0  0  0
  6 12  1  0  0  0
  7  8  1  0  0  0
  8  9  1  0  0  0
  9 10  1  0  0  0
  9 13  1  0  0  0
 10 11  1  0  0  0
 12 13  1  0  0  0
 14 15  1  0  0  0
 14 16  1  0  0  0
 15 16  1  0  0  0
 17 18  1  0  0  0
 18 19  1  0  0  0
 19 20  1  0  0  0
 19 21  1  0  0  0
 20 21  1  0  0  0
 22 23  1  0  0  0
 23 24  1  0  0  0
 24 25  1  0  0  0
 24 26  1  0  0  0
 25 26  1  0  0  0
  1 27  1  0  0  0
  3 28  1  0  0  0
  3 29  1  0  0  0
  4 30  1  0  0  0
  4 31  1  0  0  0
  5 32  1  0  0  0
  7 33  1  0  0  0
  7 34  1  0  0  0
  8 35  1  0  0  0
  8 36  1  0  0  0
 10 37  1  0  0  0
 10 38  1  0  0  0
 11 39  1  0  0  0
 11 40  1  0  0  0
 12 41  1  0  0  0
 12 42  1  0  0  0
 13 43  1  0  0  0
 13 44  1  0  0  0
 14 45  1  0  0  0
 15 46  1  0  0  0
 15 47  1  0  0  0
 16 48  1  0  0  0
 16 49  1  0  0  0
 17 50  1  0  0  0
 17 51  1  0  0  0
 18 52  1  0  0  0
 18 53  1  0  0  0
 19 54  1  0  0  0
 20 55  1  0  0  0
 20 56  1  0  0  0
 21 57  1  0  0  0
 21 58  1  0  0  0
 22 59  1  0  0  0
 22 60  1  0  0  0
 23 61  1  0  0  0
 23 62  1  0  0  0
 24 63  1  0  0  0
 25 64  1  0  0  0
 25 65  1  0  0  0
 26 66  1  0  0  0
 26 67  1  0  0  0
 68  9  1  0  0  0
M  END
