CIP:RRRRSS;BB:P-16.2.4.4, P-16.5.1.7, P-93.4.2.1.1
__Jmol-14_05291700433D 1   1.00000     0.00000     0
Jmol version 14.17.2  2017-05-27 15:31 EXTRACT: ({0:17})
 18 18  0  0  0  0              1 V2000
  -3.24945   0.45254   1.69600 C   0  0  0  0  0  0
  -4.21094   1.65771   1.63434 C   0  0  0  0  0  0
  -3.54590   3.02446   1.95762 C   0  0  0  0  0  0
  -2.31331   3.35140   1.08925 C   0  0  0  0  0  0
  -1.32369   2.15664   0.97867 C   0  0  0  0  0  0
  -1.89677   0.71911   0.97362 C   0  0  0  0  0  0
  -3.11199  -0.11792   3.40170 Cl  0  0  0  0  0  0
  -5.00703   1.67287   0.02676 Cl  0  0  0  0  0  0
  -3.07284   3.13325   3.68493 Cl  0  0  0  0  0  0
  -2.85064   4.04996  -0.48452 Cl  0  0  0  0  0  0
  -0.21001   2.34711  -0.44051 Cl  0  0  0  0  0  0
  -0.60531  -0.42380   1.53673 Cl  0  0  0  0  0  0
  -3.72072  -0.40123   1.19804 H   0  0  0  0  0  0
  -5.04124   1.49835   2.32589 H   0  0  0  0  0  0
  -4.29111   3.81546   1.84718 H   0  0  0  0  0  0
  -1.76948   4.18443   1.54693 H   0  0  0  0  0  0
  -0.66319   2.24735   1.84951 H   0  0  0  0  0  0
  -2.06752   0.43443  -0.07178 H   0  0  0  0  0  0
  1  2  1  0  0  0
  1  6  1  0  0  0
  1  7  1  0  0  0
  2  3  1  0  0  0
  2  8  1  0  0  0
  3  4  1  0  0  0
  3  9  1  0  0  0
  4  5  1  0  0  0
  4 10  1  0  0  0
  5  6  1  0  0  0
  5 11  1  0  0  0
  6 12  1  0  0  0
  1 13  1  0  0  0
  2 14  1  0  0  0
  3 15  1  0  0  0
  4 16  1  0  0  0
  5 17  1  0  0  0
  6 18  1  0  0  0
M  END
