CIP:1E 2E; BB:P-82.4.1, P-93.4.2.1.1;
__Jmol-14_05301721583D 1   1.00000     0.00000     0
Jmol version 14.17.2  2017-05-27 15:31 EXTRACT: ({0:8})
  9  8  0  0  0  0              1 V2000
  -0.07094   0.71643  -1.14251 C   0  0  0  0  0  0
   1.08093   1.29348  -1.50388 C   0  0  0  0  0  0
   1.05468   2.21877  -2.07154 H   0  0  0  0  0  0
   2.42882   0.74246  -1.17423 C   0  0  0  0  0  0
  -0.09028  -0.20854  -0.57473 H   0  0  0  0  0  0
  -1.02475   1.15949  -1.40835 H   1  0  0  0  0  0
   2.99479   1.46449  -0.57991 H   0  0  0  0  0  0
   2.98664   0.54013  -2.09256 H   0  0  0  0  0  0
   2.36463  -0.19043  -0.60399 H   0  0  0  0  0  0
  1  2  2  0  0  0
  1  5  1  0  0  0
  1  6  1  0  0  0
  2  3  1  0  0  0
  2  4  1  0  0  0
  4  7  1  0  0  0
  4  8  1  0  0  0
  4  9  1  0  0  0
M  END
