CIP:1Z 2Z 3Z 4Z 5Z 6Z 7Z 8Z 9Z 10Z; BB:P-93.5.1.4.1;
__Jmol-14_05301721583D 1   1.00000     0.00000     0
Jmol version 14.17.2  2017-05-27 15:31 EXTRACT: ({0:19})
 20 20  0  0  0  0              1 V2000
   3.22720   1.41849   1.17922 C   0  0  0  0  0  0
  -0.58427   3.41715   0.54511 C   0  0  0  0  0  0
   2.30661   0.53835   1.59673 C   0  0  0  0  0  0
  -0.59726   2.07773   0.40136 C   0  0  0  0  0  0
   0.88053   0.55979   1.89453 C   0  0  0  0  0  0
  -0.25689   1.12293   1.43473 C   0  0  0  0  0  0
   2.24668   3.71618   0.70319 C   0  0  0  0  0  0
   1.37750   4.09656   1.79685 C   0  0  0  0  0  0
   3.03494   2.66124   0.49263 C   0  0  0  0  0  0
   0.04496   4.07619   1.66804 C   0  0  0  0  0  0
   4.25290   1.06190   1.12081 H   0  0  0  0  0  0
  -1.01105   4.05409  -0.21906 H   0  0  0  0  0  0
   2.71786  -0.44621   1.80983 H   0  0  0  0  0  0
  -1.07972   1.65980  -0.47644 H   0  0  0  0  0  0
   0.69435  -0.13020   2.70772 H   0  0  0  0  0  0
  -1.15501   0.79542   1.94377 H   0  0  0  0  0  0
   2.07536   4.28006  -0.20114 H   0  0  0  0  0  0
   1.84351   4.55282   2.66722 H   0  0  0  0  0  0
   3.58836   2.67261  -0.43989 H   0  0  0  0  0  0
  -0.59827   4.51647   2.42495 H   0  0  0  0  0  0
  1  3  2  0  0  0
  1  9  1  0  0  0
  2  4  2  0  0  0
  2 10  1  0  0  0
  3  5  1  0  0  0
  4  6  1  0  0  0
  5  6  2  0  0  0
  7  8  1  0  0  0
  7  9  2  0  0  0
  8 10  2  0  0  0
  1 11  1  0  0  0
  2 12  1  0  0  0
  3 13  1  0  0  0
  4 14  1  0  0  0
  5 15  1  0  0  0
  6 16  1  0  0  0
  7 17  1  0  0  0
  8 18  1  0  0  0
  9 19  1  0  0  0
 10 20  1  0  0  0
M  END
