CIP:R;BB:P-16.2.4.4, P-16.5.1.7, P-93.4.2.1.1
__Jmol-14_05291700443D 1   1.00000     0.00000     0
Jmol version 14.17.2  2017-05-27 15:31 EXTRACT: ({0:20})
 21 20  0  0  0  0              1 V2000
   5.10667  -1.71023   0.78457 P   0  0  0  0  0  0
   6.28710  -2.14199  -0.06136 O   0  5  0  0  0  0
   4.59680  -3.16264   1.96017 S   0  0  0  0  0  0
   3.98516  -0.95946  -0.14597 O   0  0  0  0  0  0
   5.65320  -0.47096   1.67469 O   0  0  0  0  0  0
   6.58235   0.39297   1.04018 C   0  0  0  0  0  0
   2.65996  -0.86679   0.25303 C   0  0  0  0  0  0
   1.82413  -1.94948   0.01359 C   0  0  0  0  0  0
   2.16928   0.30032   0.84097 C   0  0  0  0  0  0
   0.49891  -1.91341   0.42831 C   0  0  0  0  0  0
   0.83382   0.34617   1.24863 C   0  0  0  0  0  0
   0.00866  -0.76555   1.05480 C   0  0  0  0  0  0
   7.56835  -3.32860   0.88151 Na  0  3  0  0  0  0
   6.19474   0.73822   0.08035 H   0  0  0  0  0  0
   7.53376  -0.13132   0.89422 H   0  0  0  0  0  0
   6.76152   1.25288   1.69003 H   0  0  0  0  0  0
   2.21378  -2.84134  -0.47094 H   0  0  0  0  0  0
   2.82318   1.15638   0.99420 H   0  0  0  0  0  0
  -0.13993  -2.77463   0.28189 H   0  0  0  0  0  0
   0.43711   1.23939   1.72933 H   0  0  0  0  0  0
  -1.01888  -0.74325   1.39529 H   0  0  0  0  0  0
  1  2  1  0  0  0
  1  3  2  0  0  0
  1  4  1  0  0  0
  1  5  1  0  0  0
  4  7  1  0  0  0
  5  6  1  0  0  0
  7  8  1  0  0  0
  7  9  2  0  0  0
  8 10  2  0  0  0
  9 11  1  0  0  0
 10 12  1  0  0  0
 11 12  2  0  0  0
  6 14  1  0  0  0
  6 15  1  0  0  0
  6 16  1  0  0  0
  8 17  1  0  0  0
  9 18  1  0  0  0
 10 19  1  0  0  0
 11 20  1  0  0  0
 12 21  1  0  0  0
M  END
