CIP:2R; BB:P-92.2.1.1.1;
__Jmol-14_05301721583D 1   1.00000     0.00000     0
Jmol version 14.17.2  2017-05-27 15:31 EXTRACT: ({0:15})
 16 15  0  0  0  0              1 V2000
   0.79608   2.44419   0.59574 Si  0  0  0  0  0  0
   1.95004   1.03896   0.07476 C   0  0  0  0  0  0
   3.36203   1.92771  -0.93466 Ge  0  0  0  0  0  0
   1.28273   0.13684  -0.80204 O   0  0  0  0  0  0
   0.35817  -0.70682  -0.13785 C   0  0  0  0  0  0
   2.69907   0.19340   1.53632 S   0  0  0  0  0  0
   3.79331  -0.96139   0.62283 C   0  0  0  0  0  0
   1.47572   3.34645   1.54096 H   0  0  0  0  0  0
  -0.49723   1.99510   1.13222 H   0  0  0  0  0  0
   0.43149   3.20214  -0.60770 H   0  0  0  0  0  0
  -0.18420  -0.22211   0.70096 H   0  0  0  0  0  0
   0.86615  -1.61858   0.24360 H   0  0  0  0  0  0
  -0.40631  -1.03611  -0.87178 H   0  0  0  0  0  0
   4.64930  -0.41632   0.17667 H   0  0  0  0  0  0
   3.23848  -1.49668  -0.17868 H   0  0  0  0  0  0
   4.20038  -1.71357   1.32810 H   0  0  0  0  0  0
  1  2  1  0  0  0
  2  3  1  0  0  0
  2  4  1  0  0  0
  2  6  1  0  0  0
  4  5  1  0  0  0
  6  7  1  0  0  0
  1  8  1  0  0  0
  1  9  1  0  0  0
  1 10  1  0  0  0
  5 11  1  0  0  0
  5 12  1  0  0  0
  5 13  1  0  0  0
  7 14  1  0  0  0
  7 15  1  0  0  0
  7 16  1  0  0  0
M  END
