CIP:1E 2E 4R 5S; BB:P-92.6;
__Jmol-14_05301721583D 1   1.00000     0.00000     0
Jmol version 14.17.2  2017-05-27 15:31 EXTRACT: ({0:20})
 21 20  0  0  0  0              1 V2000
   0.22281  -2.11075   0.83120 C   0  0  0  0  0  0
   1.50778  -2.22771   1.25027 C   0  0  0  0  0  0
  -0.58763  -0.85239   0.73779 C   0  0  0  0  0  0
   2.03129  -3.65349   1.48654 C   0  0  0  0  0  0
   2.33210  -0.97179   1.59619 C   0  0  0  0  0  0
   1.62152  -4.14435   3.15257 Cl  0  0  0  0  0  0
   3.48858  -4.02198   1.22096 C   0  0  0  0  0  0
   3.85557  -1.03610   1.66520 C   0  0  0  0  0  0
   1.75862  -0.27214   3.13989 Cl  0  0  0  0  0  0
  -0.35825  -3.01123   0.63938 H   0  0  0  0  0  0
  -0.05977  -0.05493   0.20459 H   0  0  0  0  0  0
  -0.86311  -0.49994   1.73518 H   0  0  0  0  0  0
  -1.51945  -1.04142   0.20275 H   0  0  0  0  0  0
   1.45483  -4.33057   0.84236 H   0  0  0  0  0  0
   2.11713  -0.21759   0.82983 H   0  0  0  0  0  0
   3.62396  -5.10847   1.28882 H   0  0  0  0  0  0
   4.17788  -3.60034   1.95263 H   0  0  0  0  0  0
   3.80838  -3.72407   0.21637 H   0  0  0  0  0  0
   4.20566  -1.57617   2.55314 H   0  0  0  0  0  0
   4.27879  -0.02657   1.73328 H   0  0  0  0  0  0
   4.28784  -1.48952   0.77178 H   0  0  0  0  0  0
  1  2  2  0  0  0
  1  3  1  0  0  0
  2  4  1  0  0  0
  2  5  1  0  0  0
  4  6  1  0  0  0
  4  7  1  0  0  0
  5  8  1  0  0  0
  5  9  1  0  0  0
  1 10  1  0  0  0
  3 11  1  0  0  0
  3 12  1  0  0  0
  3 13  1  0  0  0
  4 14  1  0  0  0
  5 15  1  0  0  0
  7 16  1  0  0  0
  7 17  1  0  0  0
  7 18  1  0  0  0
  8 19  1  0  0  0
  8 20  1  0  0  0
  8 21  1  0  0  0
M  END
