CIP:1S 3Z 4Z; BB:P-93.5.7.3;
__Jmol-14_05301721583D 1   1.00000     0.00000     0
Jmol version 14.17.2  2017-05-27 15:31 EXTRACT: ({0:43})
 44 45  0  0  0  0              1 V2000
  -3.56279  -0.96051  -0.73947 C   0  0  0  0  0  0
  -2.82193  -2.21593  -0.19803 C   0  0  0  0  0  0
  -1.98803  -2.67929  -1.35797 C   0  0  0  0  0  0
  -0.73159  -2.29565  -1.59103 C   0  0  0  0  0  0
   0.16291  -1.59503  -0.62488 C   0  0  0  0  0  0
  -0.02722  -0.08924  -0.70547 C   0  0  0  0  0  0
  -1.30637   0.43203  -0.02771 C   0  0  0  0  0  0
  -2.63804   0.32302  -0.80525 C   0  0  0  0  0  0
  -5.03520  -0.65511  -0.23482 C   0  0  0  0  0  0
  -5.66511   0.32772  -1.26736 C   0  0  0  0  0  0
  -6.92659   1.09159  -0.85476 C   0  0  0  0  0  0
  -8.16991   0.63481  -1.62820 C   0  0  0  0  0  0
  -9.08602  -0.30233  -0.84868 C   0  0  0  0  0  0
  -8.38966  -1.30368   0.07497 C   0  0  0  0  0  0
  -7.29007  -2.12067  -0.60760 C   0  0  0  0  0  0
  -5.88091  -1.96724  -0.01045 C   0  0  0  0  0  0
  -3.47310  -3.04577   0.08498 H   0  0  0  0  0  0
  -2.24295  -2.00292   0.70147 H   0  0  0  0  0  0
  -2.53119  -3.15731  -2.17055 H   0  0  0  0  0  0
  -0.35981  -2.37640  -2.60561 H   0  0  0  0  0  0
   1.19557  -1.85200  -0.87722 H   0  0  0  0  0  0
   0.01317  -1.95791   0.40058 H   0  0  0  0  0  0
   0.02121   0.25164  -1.74854 H   0  0  0  0  0  0
   0.83200   0.37268  -0.20260 H   0  0  0  0  0  0
  -1.13095   1.50087   0.11786 H   0  0  0  0  0  0
  -1.40511   0.02602   0.98459 H   0  0  0  0  0  0
  -3.21733   1.17683  -0.45222 H   0  0  0  0  0  0
  -2.43206   0.54162  -1.86170 H   0  0  0  0  0  0
  -5.81254  -0.19177  -2.21575 H   0  0  0  0  0  0
  -4.94282   1.10788  -1.51832 H   0  0  0  0  0  0
  -6.76350   2.13949  -1.11731 H   0  0  0  0  0  0
  -7.07352   1.09407   0.22685 H   0  0  0  0  0  0
  -7.89472   0.17498  -2.58095 H   0  0  0  0  0  0
  -8.75617   1.52047  -1.90426 H   0  0  0  0  0  0
  -9.72799  -0.83156  -1.55720 H   0  0  0  0  0  0
  -9.76333   0.30561  -0.23431 H   0  0  0  0  0  0
  -9.15794  -1.98873   0.44369 H   0  0  0  0  0  0
  -8.00604  -0.79932   0.96400 H   0  0  0  0  0  0
  -7.26675  -1.96317  -1.68577 H   0  0  0  0  0  0
  -7.56685  -3.17682  -0.49286 H   0  0  0  0  0  0
  -5.92985  -2.16543   1.06477 H   0  0  0  0  0  0
  -5.34639  -2.81518  -0.42813 H   0  0  0  0  0  0
  -3.75429  -1.19014  -1.79231 H   0  0  0  0  0  0
  -4.95936  -0.14474   0.73014 H   0  0  0  0  0  0
  1  2  1  0  0  0
  1  8  1  0  0  0
  1  9  1  0  0  0
  2  3  1  0  0  0
  3  4  2  0  0  0
  4  5  1  0  0  0
  5  6  1  0  0  0
  6  7  1  0  0  0
  7  8  1  0  0  0
  9 10  1  0  0  0
  9 16  1  0  0  0
 10 11  1  0  0  0
 11 12  1  0  0  0
 12 13  1  0  0  0
 13 14  1  0  0  0
 14 15  1  0  0  0
 15 16  1  0  0  0
  2 17  1  0  0  0
  2 18  1  0  0  0
  3 19  1  0  0  0
  4 20  1  0  0  0
  5 21  1  0  0  0
  5 22  1  0  0  0
  6 23  1  0  0  0
  6 24  1  0  0  0
  7 25  1  0  0  0
  7 26  1  0  0  0
  8 27  1  0  0  0
  8 28  1  0  0  0
 10 29  1  0  0  0
 10 30  1  0  0  0
 11 31  1  0  0  0
 11 32  1  0  0  0
 12 33  1  0  0  0
 12 34  1  0  0  0
 13 35  1  0  0  0
 13 36  1  0  0  0
 14 37  1  0  0  0
 14 38  1  0  0  0
 15 39  1  0  0  0
 15 40  1  0  0  0
 16 41  1  0  0  0
 16 42  1  0  0  0
 43  1  1  0  0  0
 44  9  1  0  0  0
M  END
