CIP:EE;BB:P-16.2.4.4, P-16.5.1.7, P-93.4.2.1.1
__Jmol-14_05291700453D 1   1.00000     0.00000     0
Jmol version 14.17.2  2017-05-27 15:31 EXTRACT: ({0:20})
 21 22  0  0  0  0              1 V2000
   3.75006   2.68214  -1.79898 C   0  0  0  0  0  0
   1.57833   3.15182  -1.70896 C   0  0  0  0  0  0
   2.77654   3.73997  -1.73990 C   0  0  0  0  0  0
   1.74527   1.72723  -1.63885 C   0  0  0  0  0  0
   3.04371   1.43267  -1.76472 C   0  0  0  0  0  0
   0.24853   3.71487  -1.78295 C   0  0  0  0  0  0
   0.61983   0.87719  -1.34294 C   0  0  0  0  0  0
  -0.59203   1.45179  -1.28516 C   0  0  0  0  0  0
  -0.79167   2.87119  -1.59997 C   0  0  0  0  0  0
   3.75723  -0.14946  -1.71337 Cl  0  0  0  0  0  0
   5.09153   2.82486  -1.83351 C   0  0  0  0  0  0
   5.83277   4.11455  -1.74588 C   0  0  0  0  0  0
   2.97392   4.80775  -1.76051 H   0  0  0  0  0  0
   0.10331   4.75666  -2.04615 H   0  0  0  0  0  0
   0.78083  -0.16667  -1.08524 H   0  0  0  0  0  0
  -1.45546   0.86758  -0.98044 H   0  0  0  0  0  0
  -1.81067   3.22501  -1.69212 H   0  0  0  0  0  0
   5.71693   1.94041  -1.89034 H   0  0  0  0  0  0
   6.03829   4.35301  -0.69609 H   0  0  0  0  0  0
   5.28391   4.94795  -2.19643 H   0  0  0  0  0  0
   6.78808   4.03496  -2.26672 H   0  0  0  0  0  0
  1  3  1  0  0  0
  1  5  1  0  0  0
  1 11  2  0  0  0
  2  3  2  0  0  0
  2  4  1  0  0  0
  2  6  1  0  0  0
  4  5  2  0  0  0
  4  7  1  0  0  0
  5 10  1  0  0  0
  6  9  2  0  0  0
  7  8  2  0  0  0
  8  9  1  0  0  0
 11 12  1  0  0  0
  3 13  1  0  0  0
  6 14  1  0  0  0
  7 15  1  0  0  0
  8 16  1  0  0  0
  9 17  1  0  0  0
 11 18  1  0  0  0
 12 19  1  0  0  0
 12 20  1  0  0  0
 12 21  1  0  0  0
M  END
