CIP:SS;BB:P-16.2.4.4, P-16.5.1.7, P-93.4.2.1.1
__Jmol-14_05291700433D 1   1.00000     0.00000     0
Jmol version 14.17.2  2017-05-27 15:31 EXTRACT: ({0:14})
 15 14  0  0  0  0              1 V2000
  -1.15882  -0.40101   1.32415 C   0  0  0  0  0  0
  -2.67420  -0.55279   1.55526 C   0  0  0  0  0  0
  -3.45231   0.80307   1.52232 C   0  0  0  0  0  0
  -4.95713   0.66008   1.27963 C   0  0  0  0  0  0
  -0.47523  -1.62008   1.62984 O   0  0  0  0  0  0
  -3.31251  -1.75660   0.37445 Cl  0  0  0  0  0  0
  -2.81005   1.97329   0.32041 Cl  0  0  0  0  0  0
  -0.73734   0.37508   1.97510 H   0  0  0  0  0  0
  -0.93445  -0.13917   0.28654 H   0  0  0  0  0  0
  -2.83566  -1.01554   2.53398 H   0  0  0  0  0  0
  -3.31257   1.28684   2.49431 H   0  0  0  0  0  0
  -5.17831   0.34182   0.25523 H   0  0  0  0  0  0
  -5.47012   1.61706   1.42716 H   0  0  0  0  0  0
  -5.40541  -0.06172   1.96396 H   0  0  0  0  0  0
   0.30757  -1.66467   1.05590 H   0  0  0  0  0  0
  1  2  1  0  0  0
  1  5  1  0  0  0
  2  3  1  0  0  0
  2  6  1  0  0  0
  3  4  1  0  0  0
  3  7  1  0  0  0
  1  8  1  0  0  0
  1  9  1  0  0  0
  2 10  1  0  0  0
  3 11  1  0  0  0
  4 12  1  0  0  0
  4 13  1  0  0  0
  4 14  1  0  0  0
  5 15  1  0  0  0
M  END
