CIP:MM;BB:P-16.2.4.4, P-16.5.1.7, P-93.4.2.1.1
__Jmol-14_05291700463D 1   1.00000     0.00000     0
Jmol version 14.17.2  2017-05-27 15:31 EXTRACT: ({0:31})
 32 33  0  0  0  0              1 V2000
   3.59649   0.64791   2.09463 C   0  0  0  0  0  0
   3.56126   2.02913   2.48641 C   0  0  0  0  0  0
   2.44972   0.19747   1.36228 C   0  0  0  0  0  0
   2.48470   2.87817   2.16440 C   0  0  0  0  0  0
   1.37129   1.05228   1.08009 C   0  0  0  0  0  0
   1.39331   2.38328   1.46877 C   0  0  0  0  0  0
   4.68457  -0.29151   2.49901 C   0  0  0  0  0  0
   4.44094  -1.30858   3.47182 C   0  0  0  0  0  0
   6.00797  -0.29114   1.93220 C   0  0  0  0  0  0
   5.44570  -2.18796   3.90485 C   0  0  0  0  0  0
   7.01071  -1.16937   2.40108 C   0  0  0  0  0  0
   6.72745  -2.10151   3.38835 C   0  0  0  0  0  0
   4.63085   2.63810   3.30143 N   0  3  0  0  0  0
   4.28567   3.31646   4.27421 O   0  5  0  0  0  0
   5.80071   2.45481   2.95126 O   0  0  0  0  0  0
   6.38655   0.59939   0.79619 N   0  3  0  0  0  0
   5.48566   1.02349   0.06204 O   0  5  0  0  0  0
   7.58852   0.83699   0.62830 O   0  0  0  0  0  0
   2.26259  -1.21737   0.90679 C   0  0  0  0  0  0
   1.20965  -1.83158   0.91020 O   0  0  0  0  0  0
   3.39448  -1.76355   0.43285 O   0  0  0  0  0  0
   3.07993  -1.51340   4.04493 C   0  0  0  0  0  0
   2.33145  -0.64544   4.46052 O   0  0  0  0  0  0
   2.70995  -2.80257   3.93997 O   0  0  0  0  0  0
   2.48297   3.92170   2.47319 H   0  0  0  0  0  0
   0.49682   0.67343   0.55562 H   0  0  0  0  0  0
   0.55016   3.03178   1.24167 H   0  0  0  0  0  0
   5.22443  -2.94933   4.64966 H   0  0  0  0  0  0
   8.01720  -1.14305   1.98969 H   0  0  0  0  0  0
   7.50286  -2.77938   3.73846 H   0  0  0  0  0  0
   3.11590  -2.65360   0.13141 H   0  0  0  0  0  0
   1.76361  -2.81750   4.19574 H   0  0  0  0  0  0
  1  2  1  0  0  0
  1  3  2  0  0  0
  1  7  1  0  0  0
  2  4  2  0  0  0
  2 13  1  0  0  0
  3  5  1  0  0  0
  3 19  1  0  0  0
  4  6  1  0  0  0
  5  6  2  0  0  0
  7  8  2  0  0  0
  7  9  1  0  0  0
  8 10  1  0  0  0
  8 22  1  0  0  0
  9 11  2  0  0  0
  9 16  1  0  0  0
 10 12  2  0  0  0
 11 12  1  0  0  0
 13 14  1  0  0  0
 13 15  2  0  0  0
 16 17  1  0  0  0
 16 18  2  0  0  0
 19 20  2  0  0  0
 19 21  1  0  0  0
 22 23  2  0  0  0
 22 24  1  0  0  0
  4 25  1  0  0  0
  5 26  1  0  0  0
  6 27  1  0  0  0
 10 28  1  0  0  0
 11 29  1  0  0  0
 12 30  1  0  0  0
 21 31  1  0  0  0
 24 32  1  0  0  0
M  END
