CIP:1r 4r; BB:P-93.5.1.1.2;
__Jmol-14_05301721583D 1   1.00000     0.00000     0
Jmol version 14.17.2  2017-05-27 15:31 EXTRACT: ({0:19})
 20 20  0  0  0  0              1 V2000
  -2.84502   2.89337  -1.37585 C   0  0  0  0  0  0
  -3.54167   1.52510  -1.21357 C   0  0  0  0  0  0
  -2.67650   0.33269  -0.81083 C   0  0  0  0  0  0
  -1.22156   0.41664  -1.24016 C   0  0  0  0  0  0
  -0.57694   1.71924  -0.78653 C   0  0  0  0  0  0
  -1.31716   2.97996  -1.22558 C   0  0  0  0  0  0
  -3.44852   3.81986  -0.46705 O   0  0  0  0  0  0
  -1.13032   0.29921  -2.65662 O   0  0  0  0  0  0
  -3.09356   3.27560  -2.36968 H   0  0  0  0  0  0
  -4.01616   1.28522  -2.16887 H   0  0  0  0  0  0
  -4.36998   1.59800  -0.50179 H   0  0  0  0  0  0
  -3.13130  -0.57128  -1.23588 H   0  0  0  0  0  0
  -2.71907   0.22024   0.27847 H   0  0  0  0  0  0
  -0.66861  -0.42395  -0.79731 H   0  0  0  0  0  0
   0.44433   1.77223  -1.17709 H   0  0  0  0  0  0
  -0.49848   1.71522   0.30372 H   0  0  0  0  0  0
  -1.04027   3.79572  -0.54485 H   0  0  0  0  0  0
  -0.90709   3.27911  -2.19746 H   0  0  0  0  0  0
  -4.39451   3.87185  -0.68371 H   0  0  0  0  0  0
  -0.65162  -0.52985  -2.84320 H   0  0  0  0  0  0
  1  2  1  0  0  0
  1  6  1  0  0  0
  1  7  1  0  0  0
  2  3  1  0  0  0
  3  4  1  0  0  0
  4  5  1  0  0  0
  4  8  1  0  0  0
  5  6  1  0  0  0
  1  9  1  0  0  0
  2 10  1  0  0  0
  2 11  1  0  0  0
  3 12  1  0  0  0
  3 13  1  0  0  0
  4 14  1  0  0  0
  5 15  1  0  0  0
  5 16  1  0  0  0
  6 17  1  0  0  0
  6 18  1  0  0  0
  7 19  1  0  0  0
  8 20  1  0  0  0
M  END
