CIP:R;BB:P-16.2.4.4, P-16.5.1.7, P-93.4.2.1.1
__Jmol-14_05291700443D 1   1.00000     0.00000     0
Jmol version 14.17.2  2017-05-27 15:31 EXTRACT: ({0:14})
 15 14  0  0  0  0              1 V2000
  -3.66147  -0.46546  -0.22634 C   0  0  0  0  0  0
  -2.36495  -1.26498  -0.22617 C   0  0  0  0  0  0
  -1.14866  -0.33545  -0.25307 C   0  0  0  0  0  0
   0.17246  -1.08817  -0.21913 C   0  0  0  0  0  0
  -2.34464  -2.12111  -1.36947 O   0  0  0  0  0  0
  -4.52778  -1.13378  -0.16763 H   0  0  0  0  0  0
  -3.77128   0.10814  -1.15010 H   0  0  0  0  0  0
  -3.70480   0.22762   0.62326 H   0  0  0  0  0  0
  -2.32323  -1.90005   0.66835 H   0  0  0  0  0  0
  -1.18879   0.34914   0.59654 H   0  0  0  0  0  0
  -1.16711   0.27643  -1.16374 H   0  0  0  0  0  0
   0.31214  -1.69218  -1.11660 H   0  0  0  0  0  0
   0.22742  -1.75025   0.65259 H   0  0  0  0  0  0
   1.00887  -0.38230  -0.15751 H   0  0  0  0  0  0
  -2.95641  -2.85497  -1.20082 H   0  0  0  0  0  0
  1  2  1  0  0  0
  2  3  1  0  0  0
  2  5  1  0  0  0
  3  4  1  0  0  0
  1  6  1  0  0  0
  1  7  1  0  0  0
  1  8  1  0  0  0
  2  9  1  0  0  0
  3 10  1  0  0  0
  3 11  1  0  0  0
  4 12  1  0  0  0
  4 13  1  0  0  0
  4 14  1  0  0  0
  5 15  1  0  0  0
M  END
