CIP:R;BB:P-16.2.4.4, P-16.5.1.7, P-93.4.2.1.1
__Jmol-14_05291700433D 1   1.00000     0.00000     0
Jmol version 14.17.2  2017-05-27 15:31 EXTRACT: ({0:15})
 16 15  0  0  0  0              1 V2000
  -4.50778  -1.38272  -1.37274 C   0  0  0  0  0  0
  -3.72441  -0.38343  -1.79692 C   0  0  0  0  0  0
  -2.47284   0.06497  -1.09180 C   0  0  0  0  0  0
  -1.28733   0.27554  -2.04456 C   0  0  0  0  0  0
   0.04343   0.02554  -1.34599 C   0  0  0  0  0  0
  -2.74413   1.30450  -0.44742 O   0  0  0  0  0  0
  -4.28393  -1.94381  -0.46757 H   0  0  0  0  0  0
  -5.40294  -1.66237  -1.92126 H   0  0  0  0  0  0
  -3.99629   0.15322  -2.70357 H   0  0  0  0  0  0
  -2.21086  -0.66107  -0.31066 H   0  0  0  0  0  0
  -1.29215   1.30737  -2.42391 H   0  0  0  0  0  0
  -1.34552  -0.38688  -2.91143 H   0  0  0  0  0  0
   0.27208  -1.04352  -1.33718 H   0  0  0  0  0  0
   0.04124   0.37636  -0.31137 H   0  0  0  0  0  0
   0.85771   0.53278  -1.87641 H   0  0  0  0  0  0
  -3.70018   1.35917  -0.29525 H   0  0  0  0  0  0
  1  2  2  0  0  0
  2  3  1  0  0  0
  3  4  1  0  0  0
  3  6  1  0  0  0
  4  5  1  0  0  0
  1  7  1  0  0  0
  1  8  1  0  0  0
  2  9  1  0  0  0
  3 10  1  0  0  0
  4 11  1  0  0  0
  4 12  1  0  0  0
  5 13  1  0  0  0
  5 14  1  0  0  0
  5 15  1  0  0  0
  6 16  1  0  0  0
M  END
