CIP:1S 3S 5S 6R; BB:P-93.5.2.2.1;
__Jmol-14_05301721583D 1   1.00000     0.00000     0
Jmol version 14.17.2  2017-05-27 15:31 EXTRACT: ({0:18})
 19 20  0  0  0  0              1 V2000
   1.93015   2.30702   0.54180 C   0  0  0  0  0  0
   0.38371   2.20161   0.81398 C   0  0  0  0  0  0
   1.78740   2.63757  -0.88901 C   0  0  0  0  0  0
   2.75965   3.55107   0.96726 C   0  0  0  0  0  0
   1.04515   3.91822  -0.58777 C   0  0  0  0  0  0
  -0.17567   3.44983   0.13844 C   0  0  0  0  0  0
   2.04618   4.69755   0.28196 C   0  0  0  0  0  0
   3.01790   2.83173  -1.52167 F   0  0  0  0  0  0
   1.22889   1.88469  -1.51292 H   0  0  0  0  0  0
  -1.01849   4.69623   1.46673 Br  0  0  0  0  0  0
  -1.02247   3.20474  -0.55890 H   0  0  0  0  0  0
   0.79818   4.49543  -1.50898 H   0  0  0  0  0  0
   2.45836   1.35090   0.76437 H   0  0  0  0  0  0
   0.06950   2.04433   1.82322 H   0  0  0  0  0  0
  -0.00360   1.35832   0.24894 H   0  0  0  0  0  0
   3.80453   3.49588   0.54528 H   0  0  0  0  0  0
   2.91591   3.71969   2.05469 H   0  0  0  0  0  0
   2.70152   5.30561  -0.31474 H   0  0  0  0  0  0
   1.56260   5.39827   1.02917 H   0  0  0  0  0  0
  1  2  1  0  0  0
  1  3  1  0  0  0
  1  4  1  0  0  0
  1 13  1  0  0  0
  2  6  1  0  0  0
  3  5  1  0  0  0
  3  8  1  0  0  0
  3  9  1  0  0  0
  4  7  1  0  0  0
  5  6  1  0  0  0
  5  7  1  0  0  0
  5 12  1  0  0  0
  6 10  1  0  0  0
  6 11  1  0  0  0
  2 14  1  0  0  0
  2 15  1  0  0  0
  4 16  1  0  0  0
  4 17  1  0  0  0
  7 18  1  0  0  0
  7 19  1  0  0  0
M  END
