CIP:PPZZ;BB:P-16.2.4.4, P-16.5.1.7, P-93.4.2.1.1
__Jmol-14_05291700443D 1   1.00000     0.00000     0
Jmol version 14.17.2  2017-05-27 15:31 EXTRACT: ({0:16})
 17 16  0  0  0  0              1 V2000
  -7.84941   0.76946   1.62303 C   0  0  0  0  0  0
  -6.55350   0.78763   1.68121 C   0  0  0  0  0  0
  -5.35512   0.79742   1.74874 C   0  0  0  0  0  0
  -4.15891   0.80221   1.82587 C   0  0  0  0  0  0
  -2.86389   0.81460   1.91853 C   0  0  0  0  0  0
  -2.04851  -0.17559   1.25359 C   0  0  0  0  0  0
  -0.70765  -0.23522   1.28449 C   0  0  0  0  0  0
   0.23231   0.68962   1.99336 C   0  0  0  0  0  0
  -8.54136  -0.16745   2.36157 O   0  0  0  0  0  0
  -8.47588   1.47122   1.08266 H   0  0  0  0  0  0
  -2.40057   1.59335   2.51192 H   0  0  0  0  0  0
  -2.58077  -0.93337   0.68222 H   0  0  0  0  0  0
  -0.23059  -1.04069   0.73533 H   0  0  0  0  0  0
   0.93013   1.12900   1.27599 H   0  0  0  0  0  0
   0.80779   0.13396   2.73817 H   0  0  0  0  0  0
  -0.26700   1.51293   2.50899 H   0  0  0  0  0  0
  -7.94451  -0.76316   2.85011 H   0  0  0  0  0  0
  1  2  2  0  0  0
  1  9  1  0  0  0
  1 10  1  0  0  0
  2  3  2  0  0  0
  3  4  2  0  0  0
  4  5  2  0  0  0
  5  6  1  0  0  0
  5 11  1  0  0  0
  6  7  2  0  0  0
  6 12  1  0  0  0
  7  8  1  0  0  0
  7 13  1  0  0  0
  8 14  1  0  0  0
  8 15  1  0  0  0
  8 16  1  0  0  0
  9 17  1  0  0  0
M  END
