CIP:EE;BB:P-16.2.4.4, P-16.5.1.7, P-93.4.2.1.1
__Jmol-14_05291700433D 1   1.00000     0.00000     0
Jmol version 14.17.2  2017-05-27 15:31 EXTRACT: ({0:26})
 27 28  0  0  0  0              1 V2000
  -2.06935   0.92375   0.56063 C   0  0  0  0  0  0
  -2.97845  -0.01454  -0.00691 C   0  0  0  0  0  0
  -0.77847   0.61175   0.73937 C   0  0  0  0  0  0
  -2.53409  -1.18601  -0.50207 C   0  0  0  0  0  0
  -0.29746  -0.68013   0.27549 C   0  0  0  0  0  0
  -1.13482  -1.53464  -0.34653 C   0  0  0  0  0  0
  -2.74411   2.17921   0.70650 C   0  0  0  0  0  0
  -3.96865   2.04410   0.16621 C   0  0  0  0  0  0
  -4.25657   0.63745  -0.02231 C   0  0  0  0  0  0
  -5.48030   0.03994   0.03107 C   0  0  0  0  0  0
  -5.60544  -1.45802   0.22160 C   0  0  0  0  0  0
  -6.85390   0.70064   0.06491 C   0  0  0  0  0  0
  -7.00605   2.20316   0.23459 C   0  0  0  0  0  0
  -0.06272   1.33143   1.12869 H   0  0  0  0  0  0
  -3.18091  -1.87974  -1.03228 H   0  0  0  0  0  0
   0.75186  -0.91529   0.39357 H   0  0  0  0  0  0
  -0.78521  -2.48234  -0.73372 H   0  0  0  0  0  0
  -2.29466   3.10304   1.04841 H   0  0  0  0  0  0
  -4.58699   2.88910  -0.09411 H   0  0  0  0  0  0
  -5.77452  -1.96672  -0.73160 H   0  0  0  0  0  0
  -6.44426  -1.70345   0.88468 H   0  0  0  0  0  0
  -4.74454  -1.90816   0.72052 H   0  0  0  0  0  0
  -7.42392   0.25798   0.89104 H   0  0  0  0  0  0
  -7.38260   0.41355  -0.84670 H   0  0  0  0  0  0
  -6.61482   2.74522  -0.63345 H   0  0  0  0  0  0
  -6.51902   2.55674   1.14737 H   0  0  0  0  0  0
  -8.06302   2.46387   0.31407 H   0  0  0  0  0  0
  1  3  2  0  0  0
  1  7  1  0  0  0
  1  2  1  0  0  0
  2  4  2  0  0  0
  2  9  1  0  0  0
  3  5  1  0  0  0
  4  6  1  0  0  0
  5  6  2  0  0  0
  7  8  2  0  0  0
  8  9  1  0  0  0
  9 10  2  0  0  0
 10 11  1  0  0  0
 10 12  1  0  0  0
 12 13  1  0  0  0
  3 14  1  0  0  0
  4 15  1  0  0  0
  5 16  1  0  0  0
  6 17  1  0  0  0
  7 18  1  0  0  0
  8 19  1  0  0  0
 11 20  1  0  0  0
 11 21  1  0  0  0
 11 22  1  0  0  0
 12 23  1  0  0  0
 12 24  1  0  0  0
 13 25  1  0  0  0
 13 26  1  0  0  0
 13 27  1  0  0  0
M  END
