CIP:13E 14E; BB:P-93.4.2.1.1;
__Jmol-14_05301721583D 1   1.00000     0.00000     0
Jmol version 14.17.2  2017-05-27 15:31 EXTRACT: ({0:35})
 36 38  0  0  0  0              1 V2000
   1.20602  -1.72344  -1.62933 C   0  0  0  0  0  0
   1.58881  -0.37564  -1.37946 C   0  0  0  0  0  0
   0.63115   0.64025  -1.16614 C   0  0  0  0  0  0
  -0.71638   0.32669  -1.01634 C   0  0  0  0  0  0
  -1.12053  -0.94225  -1.35790 C   0  0  0  0  0  0
  -0.16949  -1.81330  -1.88322 C   0  0  0  0  0  0
   3.55382  -5.06866  -1.92491 C   0  0  0  0  0  0
   3.59301  -6.47469  -2.11856 C   0  0  0  0  0  0
   4.75420  -7.24470  -2.19665 C   0  0  0  0  0  0
   5.98365  -6.62618  -2.20335 C   0  0  0  0  0  0
   6.03843  -5.24262  -2.16359 C   0  0  0  0  0  0
   4.86028  -4.47886  -2.02754 C   0  0  0  0  0  0
   2.16740  -4.31778  -1.65042 C   0  0  0  0  0  0
   2.19181  -2.91955  -1.74444 C   0  0  0  0  0  0
  -1.66437  -5.13959  -1.41710 C   0  0  0  0  0  0
  -1.73455  -6.50779  -1.29233 C   0  0  0  0  0  0
  -0.54792  -7.17848  -1.00427 C   0  0  0  0  0  0
   0.68811  -6.51173  -1.03659 C   0  0  0  0  0  0
   0.83112  -5.13193  -1.34687 C   0  0  0  0  0  0
  -0.42579  -4.54016  -1.26126 C   0  0  0  0  0  0
   7.43240  -7.56915  -2.31511 Cl  0  0  0  0  0  0
   2.63977  -0.09080  -1.39516 H   0  0  0  0  0  0
   0.89376   1.69467  -1.12290 H   0  0  0  0  0  0
  -1.45753   1.07995  -0.74364 H   0  0  0  0  0  0
  -2.17211  -1.22454  -1.33019 H   0  0  0  0  0  0
  -0.53710  -2.62374  -2.48466 H   0  0  0  0  0  0
   2.69073  -7.03441  -2.26470 H   0  0  0  0  0  0
   4.68144  -8.33215  -2.27377 H   0  0  0  0  0  0
   7.01176  -4.75532  -2.24068 H   0  0  0  0  0  0
   5.00624  -3.40818  -2.02042 H   0  0  0  0  0  0
   3.16153  -2.48533  -1.92056 H   0  0  0  0  0  0
  -2.57057  -4.53530  -1.46494 H   0  0  0  0  0  0
  -2.69645  -7.00148  -1.27666 H   0  0  0  0  0  0
  -0.60472  -8.22672  -0.72251 H   0  0  0  0  0  0
   1.54192  -7.09705  -0.72765 H   0  0  0  0  0  0
  -0.46282  -3.59305  -0.77843 H   0  0  0  0  0  0
  1  2  2  0  0  0
  1  6  1  0  0  0
  1 14  1  0  0  0
  2  3  1  0  0  0
  3  4  2  0  0  0
  4  5  1  0  0  0
  5  6  2  0  0  0
  7  8  2  0  0  0
  7 12  1  0  0  0
  7 13  1  0  0  0
  8  9  1  0  0  0
  9 10  2  0  0  0
 10 11  1  0  0  0
 10 21  1  0  0  0
 11 12  2  0  0  0
 13 14  2  0  0  0
 13 19  1  0  0  0
 15 20  2  0  0  0
 15 16  1  0  0  0
 16 17  2  0  0  0
 17 18  1  0  0  0
 18 19  2  0  0  0
 19 20  1  0  0  0
  2 22  1  0  0  0
  3 23  1  0  0  0
  4 24  1  0  0  0
  5 25  1  0  0  0
  6 26  1  0  0  0
  8 27  1  0  0  0
  9 28  1  0  0  0
 11 29  1  0  0  0
 12 30  1  0  0  0
 14 31  1  0  0  0
 15 32  1  0  0  0
 16 33  1  0  0  0
 17 34  1  0  0  0
 18 35  1  0  0  0
 20 36  1  0  0  0
M  END
