CIP:R;BB:P-16.2.4.4, P-16.5.1.7, P-93.4.2.1.1
__Jmol-14_05291700433D 1   1.00000     0.00000     0
Jmol version 14.17.2  2017-05-27 15:31 EXTRACT: ({0:15})
 16 15  0  0  0  0              1 V2000
   2.42743  -0.86941   0.56072 Si  0  0  0  0  0  0
   0.99895  -1.97225  -0.00575 C   0  0  0  0  0  0
   1.85870  -3.35968  -1.07269 Ge  0  0  0  0  0  0
   0.11063  -1.25145  -0.85383 O   0  0  0  0  0  0
  -0.71398  -0.33775  -0.15177 C   0  0  0  0  0  0
   0.13826  -2.76291   1.42473 S   0  0  0  0  0  0
  -1.03860  -3.79518   0.46831 C   0  0  0  0  0  0
   3.31564  -1.60532   1.47667 H   0  0  0  0  0  0
   2.00483   0.40981   1.14991 H   0  0  0  0  0  0
   3.19267  -0.47153  -0.62747 H   0  0  0  0  0  0
  -0.21830   0.15992   0.70807 H   0  0  0  0  0  0
  -1.63592  -0.84219   0.20940 H   0  0  0  0  0  0
  -1.02760   0.46260  -0.85359 H   0  0  0  0  0  0
  -0.51112  -4.64317  -0.01286 H   0  0  0  0  0  0
  -1.56246  -3.19729  -0.30943 H   0  0  0  0  0  0
  -1.79893  -4.21527   1.15700 H   0  0  0  0  0  0
  1  2  1  0  0  0
  2  3  1  0  0  0
  2  4  1  0  0  0
  2  6  1  0  0  0
  4  5  1  0  0  0
  6  7  1  0  0  0
  1  8  1  0  0  0
  1  9  1  0  0  0
  1 10  1  0  0  0
  5 11  1  0  0  0
  5 12  1  0  0  0
  5 13  1  0  0  0
  7 14  1  0  0  0
  7 15  1  0  0  0
  7 16  1  0  0  0
M  END
