CIP:1S; BB:P-93.2.4;
__Jmol-14_05301721583D 1   1.00000     0.00000     0
Jmol version 14.17.2  2017-05-27 15:31 EXTRACT: ({0:14})
 15 12  0  0  0  0              1 V2000
   1.36479  -0.58627   0.59875 P   0  0  0  0  0  0
   2.66725  -1.39780   1.40523 O   2  5  0  0  0  0
   0.08538  -1.42955   0.86366 O   0  0  0  0  0  0
   1.06844   0.99824   1.27211 O   0  0  0  0  0  0
   1.59298  -0.54602  -1.12055 O   1  5  0  0  0  0
   2.11493   1.83832   0.85954 C   0  0  0  0  0  0
   4.85403   2.30049  -0.55386 H   0  3  0  0  0  0
   5.19530  -0.09607   0.72427 H   0  3  0  0  0  0
   2.07688   1.99656  -0.23781 H   0  0  0  0  0  0
   3.10435   1.43817   1.17827 H   0  0  0  0  0  0
   1.98499   2.82355   1.34563 H   0  0  0  0  0  0
   4.27662   2.34944  -1.12037 H   0  0  0  0  0  0
   5.50620   2.30971  -0.06382 H   0  0  0  0  0  0
   4.71533  -0.23348   0.08519 H   0  0  0  0  0  0
   5.75681   0.04905   1.29890 H   0  0  0  0  0  0
  1  2  1  0  0  0
  1  3  2  0  0  0
  1  4  1  0  0  0
  1  5  1  0  0  0
  4  6  1  0  0  0
  6  9  1  0  0  0
  6 10  1  0  0  0
  6 11  1  0  0  0
  7 12  1  0  0  0
  7 13  1  0  0  0
  8 14  1  0  0  0
  8 15  1  0  0  0
M  END
