CIP:SS;BB:P-16.2.4.4, P-16.5.1.7, P-93.4.2.1.1
__Jmol-14_05291700433D 1   1.00000     0.00000     0
Jmol version 14.17.2  2017-05-27 15:31 EXTRACT: ({0:14})
 15 14  0  0  0  0              1 V2000
  -3.66676  -0.32135  -0.58388 C   0  0  0  0  0  0
  -3.61270  -0.10801   0.61751 O   0  0  0  0  0  0
  -4.85720  -0.24315  -1.20653 O   0  0  0  0  0  0
  -2.54816  -0.70110  -1.57706 C   0  0  0  0  0  0
  -1.08228  -0.84487  -1.08180 C   0  0  0  0  0  0
  -0.60753  -2.28194  -0.87432 C   0  0  0  0  0  0
  -0.65749   0.15353   0.34844 Cl  0  0  0  0  0  0
  -2.94109  -1.87689  -2.33234 O   0  0  0  0  0  0
  -5.47734   0.05752  -0.51501 H   0  0  0  0  0  0
  -2.54483   0.12628  -2.29656 H   0  0  0  0  0  0
  -0.44471  -0.44133  -1.87723 H   0  0  0  0  0  0
  -1.22643  -2.81342  -0.14437 H   0  0  0  0  0  0
   0.43047  -2.31444  -0.53297 H   0  0  0  0  0  0
  -0.64205  -2.84058  -1.81777 H   0  0  0  0  0  0
  -3.58656  -2.37291  -1.79553 H   0  0  0  0  0  0
  1  2  2  0  0  0
  1  3  1  0  0  0
  1  4  1  0  0  0
  4  5  1  0  0  0
  4  8  1  0  0  0
  5  6  1  0  0  0
  5  7  1  0  0  0
  3  9  1  0  0  0
  4 10  1  0  0  0
  5 11  1  0  0  0
  6 12  1  0  0  0
  6 13  1  0  0  0
  6 14  1  0  0  0
  8 15  1  0  0  0
M  END
