CIP:2R 4S; BB:P-93.1.3;
__Jmol-14_05301721583D 1   1.00000     0.00000     0
Jmol version 14.17.2  2017-05-27 15:31 EXTRACT: ({0:17})
 18 18  0  0  0  0              1 V2000
  -2.59553   0.79439  -0.55173 C   0  0  0  0  0  0
  -1.89512  -0.51806  -0.94133 C   0  0  0  0  0  0
  -4.00610   0.72594  -1.13773 C   0  0  0  0  0  0
  -3.05922  -1.50261  -1.07186 C   0  0  0  0  0  0
  -4.30150  -0.74515  -1.42976 C   0  0  0  0  0  0
  -0.93246  -0.41251  -2.11096 C   0  0  0  0  0  0
  -3.30727  -2.37144   0.51190 Cl  0  0  0  0  0  0
  -0.46593   0.66435  -2.55320 O   0  0  0  0  0  0
  -0.46835  -1.58493  -2.57689 O   0  0  0  0  0  0
  -2.08045   1.67708  -0.88336 H   0  0  0  0  0  0
  -2.67436   0.83710   0.51772 H   0  0  0  0  0  0
  -1.26892  -0.76550  -0.13894 H   0  0  0  0  0  0
  -4.04178   1.29466  -2.04602 H   0  0  0  0  0  0
  -4.72809   1.14930  -0.45250 H   0  0  0  0  0  0
  -2.86033  -2.31046  -1.81788 H   0  0  0  0  0  0
  -4.49555  -0.83607  -2.53248 H   0  0  0  0  0  0
  -5.19943  -1.07598  -0.93735 H   0  0  0  0  0  0
  -0.64818  -2.36316  -1.97226 H   0  0  0  0  0  0
  1  2  1  0  0  0
  1  3  1  0  0  0
  2  4  1  0  0  0
  2  6  1  0  0  0
  3  5  1  0  0  0
  4  5  1  0  0  0
  4  7  1  0  0  0
  6  8  2  0  0  0
  6  9  1  0  0  0
  1 10  1  0  0  0
  1 11  1  0  0  0
  2 12  1  0  0  0
  3 13  1  0  0  0
  3 14  1  0  0  0
  4 15  1  0  0  0
  5 16  1  0  0  0
  5 17  1  0  0  0
  9 18  1  0  0  0
M  END
