CIP:rrrr;BB:P-16.2.4.4, P-16.5.1.7, P-93.4.2.1.1
__Jmol-14_05291700463D 1   1.00000     0.00000     0
Jmol version 14.17.2  2017-05-27 15:31 EXTRACT: ({0:167})
168172  0  0  0  0              1 V2000
  11.41607   8.65531   5.32558 C   0  0  0  0  0  0
  12.79314   8.03082   6.06480 C   0  0  0  0  0  0
  10.67097   7.81355   4.92105 C   0  0  0  0  0  0
  12.77779   6.59950   6.27640 C   0  0  0  0  0  0
  10.43383   6.53108   5.18025 C   0  0  0  0  0  0
  11.68739   5.76648   5.84137 C   0  0  0  0  0  0
  10.89945  10.17025   4.96670 O   0  0  0  0  0  0
   8.93922   6.13513   4.69790 O   0  0  0  0  0  0
  11.57576   4.18074   6.00345 C   0  0  0  0  0  0
  13.50971   8.99880   7.07665 C   0  0  0  0  0  0
  15.46697   9.77047   8.48826 C   0  0  0  0  0  0
  15.01859   9.01142   7.36522 C   0  0  0  0  0  0
  16.77522   9.90126   8.83435 C   0  0  0  0  0  0
  16.01363   8.27120   6.65722 C   0  0  0  0  0  0
  17.69501   9.12468   8.18242 C   0  0  0  0  0  0
  17.36642   8.25813   7.09931 C   0  0  0  0  0  0
  14.63034  10.39528   9.39699 O   0  0  0  0  0  0
  18.95542   9.14569   8.74370 O   0  0  0  0  0  0
  18.82147   7.27398   6.88142 C   0  0  0  0  0  0
  19.15787   5.13422   7.66080 C   0  0  0  0  0  0
  18.30671   5.78754   6.72942 C   0  0  0  0  0  0
  19.00848   3.82747   8.01307 C   0  0  0  0  0  0
  17.39167   4.96465   6.00296 C   0  0  0  0  0  0
  18.04289   3.07940   7.38047 C   0  0  0  0  0  0
  17.27395   3.57405   6.30080 C   0  0  0  0  0  0
  20.21703   5.75835   8.30141 O   0  0  0  0  0  0
  17.91476   1.76805   7.79346 O   0  0  0  0  0  0
  16.58708   2.51609   5.40730 C   0  0  0  0  0  0
  12.41023   1.81577   5.26445 C   0  0  0  0  0  0
  12.72763   3.18995   5.54047 C   0  0  0  0  0  0
  13.27515   0.92546   4.67996 C   0  0  0  0  0  0
  14.12660   3.48349   5.46511 C   0  0  0  0  0  0
  14.59369   1.25703   4.59681 C   0  0  0  0  0  0
  15.08827   2.49683   5.06785 C   0  0  0  0  0  0
  11.21908   1.23469   5.65217 O   0  0  0  0  0  0
  15.45897   0.24769   4.20002 O   0  0  0  0  0  0
  12.93677  10.47390   7.10436 C   0  0  0  0  0  0
  11.59104  10.50659   7.84096 C   0  0  0  0  0  0
  10.84333  11.81629   7.66575 C   0  0  0  0  0  0
   9.38884  11.65541   8.10418 C   0  0  0  0  0  0
   8.65003  12.98033   8.01012 C   0  0  0  0  0  0
   7.15446  12.83108   8.27045 C   0  0  0  0  0  0
   6.49221  14.20449   8.24964 C   0  0  0  0  0  0
   4.98374  14.13226   8.43030 C   0  0  0  0  0  0
   4.37468  15.52454   8.42904 C   0  0  0  0  0  0
  19.61076   7.78966   5.62575 C   0  0  0  0  0  0
  20.53124   8.75580   6.41423 C   0  0  0  0  0  0
  21.93192   9.13668   5.94816 C   0  0  0  0  0  0
  22.08512  10.66600   5.94632 C   0  0  0  0  0  0
  23.16432  11.17305   6.89525 C   0  0  0  0  0  0
  23.24627  12.69722   6.82411 C   0  0  0  0  0  0
  24.43973  13.23804   7.59775 C   0  0  0  0  0  0
  24.69384  14.71075   7.27235 C   0  0  0  0  0  0
  26.01754  15.16768   7.85860 C   0  0  0  0  0  0
  17.61046   2.01059   4.32211 C   0  0  0  0  0  0
  18.58055   0.96595   4.93866 C   0  0  0  0  0  0
  19.23235  -0.04237   3.98597 C   0  0  0  0  0  0
  20.76502  -0.07828   4.13597 C   0  0  0  0  0  0
  21.31631  -1.50179   4.22779 C   0  0  0  0  0  0
  22.84447  -1.51302   4.32105 C   0  0  0  0  0  0
  23.38478  -2.94136   4.40741 C   0  0  0  0  0  0
  24.91032  -2.98485   4.29633 C   0  0  0  0  0  0
  25.41577  -4.41940   4.25945 C   0  0  0  0  0  0
  10.22455   3.65415   5.33466 C   0  0  0  0  0  0
   9.19742   3.18042   6.38486 C   0  0  0  0  0  0
   8.01096   2.45321   5.74186 C   0  0  0  0  0  0
   7.90166   0.99498   6.19736 C   0  0  0  0  0  0
   6.78964   0.27439   5.44575 C   0  0  0  0  0  0
   6.61771  -1.17598   5.90078 C   0  0  0  0  0  0
   5.38632  -1.77766   5.22316 C   0  0  0  0  0  0
   5.14099  -3.22702   5.62604 C   0  0  0  0  0  0
   3.84235  -3.73932   5.02237 C   0  0  0  0  0  0
   9.82261   8.28852   4.44768 H   0  0  0  0  0  0
  13.54747   6.15922   6.89652 H   0  0  0  0  0  0
   9.98919  10.49482   4.86387 H   0  0  0  0  0  0
   8.34661   6.57504   4.07090 H   0  0  0  0  0  0
  11.50411   4.02917   7.08413 H   0  0  0  0  0  0
  13.14318   8.56346   8.01164 H   0  0  0  0  0  0
  17.05021  10.50478   9.69139 H   0  0  0  0  0  0
  15.71865   7.65250   5.81243 H   0  0  0  0  0  0
  13.89969   9.78706   9.58349 H   0  0  0  0  0  0
  19.14583  10.06810   9.00349 H   0  0  0  0  0  0
  19.64922   3.40375   8.77498 H   0  0  0  0  0  0
  16.81254   5.39321   5.18997 H   0  0  0  0  0  0
  19.83485   6.44749   8.87900 H   0  0  0  0  0  0
  18.76589   1.49420   8.18173 H   0  0  0  0  0  0
  12.94352  -0.07578   4.42111 H   0  0  0  0  0  0
  14.48824   4.44683   5.80963 H   0  0  0  0  0  0
  10.96369   0.56912   4.98602 H   0  0  0  0  0  0
  14.98284  -0.59538   4.15636 H   0  0  0  0  0  0
  12.88640  10.92564   6.11477 H   0  0  0  0  0  0
  13.58400  11.20242   7.59728 H   0  0  0  0  0  0
  11.75524  10.33267   8.91215 H   0  0  0  0  0  0
  10.95149   9.68420   7.50527 H   0  0  0  0  0  0
  10.86990  12.12462   6.61716 H   0  0  0  0  0  0
  11.33963  12.60684   8.24625 H   0  0  0  0  0  0
   9.34139  11.27894   9.13623 H   0  0  0  0  0  0
   8.89698  10.91020   7.47149 H   0  0  0  0  0  0
   8.79873  13.41047   7.01131 H   0  0  0  0  0  0
   9.08478  13.68521   8.72302 H   0  0  0  0  0  0
   6.98644  12.35062   9.23866 H   0  0  0  0  0  0
   6.70386  12.18241   7.50570 H   0  0  0  0  0  0
   6.71880  14.70578   7.29989 H   0  0  0  0  0  0
   6.92848  14.82755   9.04259 H   0  0  0  0  0  0
   4.74219  13.63213   9.37724 H   0  0  0  0  0  0
   4.53717  13.53822   7.63000 H   0  0  0  0  0  0
   4.58221  16.04377   7.48553 H   0  0  0  0  0  0
   4.77757  16.13026   9.24463 H   0  0  0  0  0  0
   3.29176  15.46825   8.55233 H   0  0  0  0  0  0
  19.19689   8.28687   4.74452 H   0  0  0  0  0  0
  20.20904   6.94140   5.26593 H   0  0  0  0  0  0
  20.72006   8.33661   7.40218 H   0  0  0  0  0  0
  19.93627   9.65883   6.57155 H   0  0  0  0  0  0
  22.20608   8.69762   4.98804 H   0  0  0  0  0  0
  22.65062   8.70277   6.65654 H   0  0  0  0  0  0
  21.15078  11.16770   6.22795 H   0  0  0  0  0  0
  22.30247  10.99463   4.92465 H   0  0  0  0  0  0
  24.12808  10.72684   6.62163 H   0  0  0  0  0  0
  22.94588  10.86228   7.92554 H   0  0  0  0  0  0
  22.32173  13.14473   7.20147 H   0  0  0  0  0  0
  23.33049  12.99719   5.77095 H   0  0  0  0  0  0
  25.32866  12.65455   7.34711 H   0  0  0  0  0  0
  24.27178  13.11303   8.67585 H   0  0  0  0  0  0
  23.88048  15.32835   7.66161 H   0  0  0  0  0  0
  24.72077  14.85802   6.18914 H   0  0  0  0  0  0
  26.84972  14.57896   7.45453 H   0  0  0  0  0  0
  26.02354  15.06493   8.94431 H   0  0  0  0  0  0
  26.20148  16.21853   7.61254 H   0  0  0  0  0  0
  18.19589   2.84361   3.92490 H   0  0  0  0  0  0
  17.11863   1.59236   3.43970 H   0  0  0  0  0  0
  18.04770   0.35531   5.67693 H   0  0  0  0  0  0
  19.34473   1.50700   5.49894 H   0  0  0  0  0  0
  18.96148   0.16046   2.94772 H   0  0  0  0  0  0
  18.81764  -1.03042   4.21411 H   0  0  0  0  0  0
  21.09724   0.47104   5.01771 H   0  0  0  0  0  0
  21.20976   0.43413   3.27438 H   0  0  0  0  0  0
  20.99891  -2.07317   3.35331 H   0  0  0  0  0  0
  20.89241  -2.00349   5.10720 H   0  0  0  0  0  0
  23.17379  -0.94137   5.19860 H   0  0  0  0  0  0
  23.26193  -1.01329   3.44237 H   0  0  0  0  0  0
  22.94854  -3.54353   3.60603 H   0  0  0  0  0  0
  23.07055  -3.39615   5.35146 H   0  0  0  0  0  0
  25.36396  -2.45678   5.13897 H   0  0  0  0  0  0
  25.23243  -2.47533   3.38533 H   0  0  0  0  0  0
  24.99762  -4.96610   3.41113 H   0  0  0  0  0  0
  25.14921  -4.95489   5.17830 H   0  0  0  0  0  0
  26.50816  -4.43489   4.16666 H   0  0  0  0  0  0
  10.38040   2.86959   4.59572 H   0  0  0  0  0  0
   9.76349   4.34026   4.62648 H   0  0  0  0  0  0
   8.82474   4.03812   6.94799 H   0  0  0  0  0  0
   9.67945   2.53721   7.13192 H   0  0  0  0  0  0
   8.07434   2.49486   4.64687 H   0  0  0  0  0  0
   7.09010   2.97676   6.00768 H   0  0  0  0  0  0
   7.70395   0.96353   7.27800 H   0  0  0  0  0  0
   8.84150   0.46735   6.03152 H   0  0  0  0  0  0
   7.00038   0.29568   4.36811 H   0  0  0  0  0  0
   5.85312   0.81691   5.59151 H   0  0  0  0  0  0
   6.49908  -1.21598   6.98653 H   0  0  0  0  0  0
   7.51035  -1.75584   5.64954 H   0  0  0  0  0  0
   5.49644  -1.71564   4.13842 H   0  0  0  0  0  0
   4.50475  -1.17738   5.48299 H   0  0  0  0  0  0
   5.09037  -3.31496   6.71296 H   0  0  0  0  0  0
   5.97492  -3.85600   5.28831 H   0  0  0  0  0  0
   3.86889  -3.68947   3.92718 H   0  0  0  0  0  0
   2.99048  -3.14760   5.36712 H   0  0  0  0  0  0
   3.67010  -4.77757   5.30943 H   0  0  0  0  0  0
  19.37466   7.35977   7.78908 H   0  0  0  0  0  0
  16.51197   1.67886   6.10467 H   0  0  0  0  0  0
  1  2  1  0  0  0
  1  3  2  0  0  0
  1  7  1  0  0  0
  2  4  2  0  0  0
  2 10  1  0  0  0
  3  5  1  0  0  0
  4  6  1  0  0  0
  5  6  2  0  0  0
  5  8  1  0  0  0
  6  9  1  0  0  0
  9 30  1  0  0  0
  9 64  1  0  0  0
 10 12  1  0  0  0
 10 37  1  0  0  0
 11 12  1  0  0  0
 11 13  2  0  0  0
 11 17  1  0  0  0
 12 14  2  0  0  0
 13 15  1  0  0  0
 14 16  1  0  0  0
 15 16  2  0  0  0
 15 18  1  0  0  0
 16 19  1  0  0  0
 19 21  1  0  0  0
 19 46  1  0  0  0
 20 21  1  0  0  0
 20 22  2  0  0  0
 20 26  1  0  0  0
 21 23  2  0  0  0
 22 24  1  0  0  0
 23 25  1  0  0  0
 24 25  2  0  0  0
 24 27  1  0  0  0
 25 28  1  0  0  0
 28 34  1  0  0  0
 28 55  1  0  0  0
 29 30  1  0  0  0
 29 31  2  0  0  0
 29 35  1  0  0  0
 30 32  2  0  0  0
 31 33  1  0  0  0
 32 34  1  0  0  0
 33 34  2  0  0  0
 33 36  1  0  0  0
 37 38  1  0  0  0
 38 39  1  0  0  0
 39 40  1  0  0  0
 40 41  1  0  0  0
 41 42  1  0  0  0
 42 43  1  0  0  0
 43 44  1  0  0  0
 44 45  1  0  0  0
 46 47  1  0  0  0
 47 48  1  0  0  0
 48 49  1  0  0  0
 49 50  1  0  0  0
 50 51  1  0  0  0
 51 52  1  0  0  0
 52 53  1  0  0  0
 53 54  1  0  0  0
 55 56  1  0  0  0
 56 57  1  0  0  0
 57 58  1  0  0  0
 58 59  1  0  0  0
 59 60  1  0  0  0
 60 61  1  0  0  0
 61 62  1  0  0  0
 62 63  1  0  0  0
 64 65  1  0  0  0
 65 66  1  0  0  0
 66 67  1  0  0  0
 67 68  1  0  0  0
 68 69  1  0  0  0
 69 70  1  0  0  0
 70 71  1  0  0  0
 71 72  1  0  0  0
  3 73  1  0  0  0
  4 74  1  0  0  0
  7 75  1  0  0  0
  8 76  1  0  0  0
  9 77  1  0  0  0
 10 78  1  0  0  0
 13 79  1  0  0  0
 14 80  1  0  0  0
 17 81  1  0  0  0
 18 82  1  0  0  0
 22 83  1  0  0  0
 23 84  1  0  0  0
 26 85  1  0  0  0
 27 86  1  0  0  0
 31 87  1  0  0  0
 32 88  1  0  0  0
 35 89  1  0  0  0
 36 90  1  0  0  0
 37 91  1  0  0  0
 37 92  1  0  0  0
 38 93  1  0  0  0
 38 94  1  0  0  0
 39 95  1  0  0  0
 39 96  1  0  0  0
 40 97  1  0  0  0
 40 98  1  0  0  0
 41 99  1  0  0  0
 41100  1  0  0  0
 42101  1  0  0  0
 42102  1  0  0  0
 43103  1  0  0  0
 43104  1  0  0  0
 44105  1  0  0  0
 44106  1  0  0  0
 45107  1  0  0  0
 45108  1  0  0  0
 45109  1  0  0  0
 46110  1  0  0  0
 46111  1  0  0  0
 47112  1  0  0  0
 47113  1  0  0  0
 48114  1  0  0  0
 48115  1  0  0  0
 49116  1  0  0  0
 49117  1  0  0  0
 50118  1  0  0  0
 50119  1  0  0  0
 51120  1  0  0  0
 51121  1  0  0  0
 52122  1  0  0  0
 52123  1  0  0  0
 53124  1  0  0  0
 53125  1  0  0  0
 54126  1  0  0  0
 54127  1  0  0  0
 54128  1  0  0  0
 55129  1  0  0  0
 55130  1  0  0  0
 56131  1  0  0  0
 56132  1  0  0  0
 57133  1  0  0  0
 57134  1  0  0  0
 58135  1  0  0  0
 58136  1  0  0  0
 59137  1  0  0  0
 59138  1  0  0  0
 60139  1  0  0  0
 60140  1  0  0  0
 61141  1  0  0  0
 61142  1  0  0  0
 62143  1  0  0  0
 62144  1  0  0  0
 63145  1  0  0  0
 63146  1  0  0  0
 63147  1  0  0  0
 64148  1  0  0  0
 64149  1  0  0  0
 65150  1  0  0  0
 65151  1  0  0  0
 66152  1  0  0  0
 66153  1  0  0  0
 67154  1  0  0  0
 67155  1  0  0  0
 68156  1  0  0  0
 68157  1  0  0  0
 69158  1  0  0  0
 69159  1  0  0  0
 70160  1  0  0  0
 70161  1  0  0  0
 71162  1  0  0  0
 71163  1  0  0  0
 72164  1  0  0  0
 72165  1  0  0  0
 72166  1  0  0  0
167 19  1  0  0  0
168 28  1  0  0  0
M  END
