CIP:SRSSR;BB:P-16.2.4.4, P-16.5.1.7, P-93.4.2.1.1
__Jmol-14_05291700433D 1   1.00000     0.00000     0
Jmol version 14.17.2  2017-05-27 15:31 EXTRACT: ({0:35})
 36 35  0  0  0  0              1 V2000
   0.62070   1.84373   0.48715 C   0  0  0  0  0  0
   2.01921   1.36779   0.09654 C   0  0  0  0  0  0
   3.02340   2.50211  -0.20840 C   0  0  0  0  0  0
   4.43852   1.86873  -0.46914 C   0  0  0  0  0  0
   5.63919   2.82955  -0.18881 C   0  0  0  0  0  0
   6.92055   2.01339   0.12122 C   0  0  0  0  0  0
   8.11035   2.88147   0.52218 C   0  0  0  0  0  0
  -0.06869   0.80872   1.03694 F   0  0  0  0  0  0
   1.91970   0.58963  -1.01578 F   0  0  0  0  0  0
   2.46229   3.44610  -1.32478 C   0  0  0  0  0  0
   1.61337   4.59937  -0.74080 C   0  0  0  0  0  0
   1.75902   6.39654  -1.82294 I   0  0  0  0  0  0
   4.55556   1.28648  -1.76382 O   0  0  0  0  0  0
   5.92391   3.89184  -1.29509 C   0  0  0  0  0  0
   6.37860   5.23603  -0.69418 C   0  0  0  0  0  0
   5.76817   6.74827  -1.77088 Br  0  0  0  0  0  0
   7.28083   1.29184  -0.97291 F   0  0  0  0  0  0
   9.07270   2.10264   1.08960 F   0  0  0  0  0  0
   0.04927   2.17112  -0.38856 H   0  0  0  0  0  0
   0.65637   2.64361   1.23125 H   0  0  0  0  0  0
   2.39801   0.72102   0.89825 H   0  0  0  0  0  0
   3.12110   3.07685   0.71432 H   0  0  0  0  0  0
   4.54224   1.03298   0.23647 H   0  0  0  0  0  0
   5.38612   3.35207   0.73542 H   0  0  0  0  0  0
   6.72994   1.29017   0.92475 H   0  0  0  0  0  0
   7.83281   3.64201   1.25523 H   0  0  0  0  0  0
   8.56492   3.35771  -0.35359 H   0  0  0  0  0  0
   1.86026   2.87853  -2.03793 H   0  0  0  0  0  0
   3.25351   3.85651  -1.93160 H   0  0  0  0  0  0
   1.88225   4.79460   0.29843 H   0  0  0  0  0  0
   0.56028   4.30308  -0.72848 H   0  0  0  0  0  0
   3.68791   0.93023  -2.03632 H   0  0  0  0  0  0
   5.06640   4.05116  -1.92980 H   0  0  0  0  0  0
   6.68578   3.52977  -1.98837 H   0  0  0  0  0  0
   7.46896   5.32806  -0.67733 H   0  0  0  0  0  0
   5.98781   5.41721   0.30865 H   0  0  0  0  0  0
  1  2  1  0  0  0
  1  8  1  0  0  0
  2  3  1  0  0  0
  2  9  1  0  0  0
  3  4  1  0  0  0
  3 10  1  0  0  0
  4  5  1  0  0  0
  4 13  1  0  0  0
  5  6  1  0  0  0
  5 14  1  0  0  0
  6  7  1  0  0  0
  6 17  1  0  0  0
  7 18  1  0  0  0
 10 11  1  0  0  0
 11 12  1  0  0  0
 14 15  1  0  0  0
 15 16  1  0  0  0
  1 19  1  0  0  0
  1 20  1  0  0  0
  2 21  1  0  0  0
  3 22  1  0  0  0
  4 23  1  0  0  0
  5 24  1  0  0  0
  6 25  1  0  0  0
  7 26  1  0  0  0
  7 27  1  0  0  0
 10 28  1  0  0  0
 10 29  1  0  0  0
 11 30  1  0  0  0
 11 31  1  0  0  0
 13 32  1  0  0  0
 14 33  1  0  0  0
 14 34  1  0  0  0
 15 35  1  0  0  0
 15 36  1  0  0  0
M  END
