CIP:1Z 2Z; BB:P-90, P-91.3, P-93.4.2.1.1;
__Jmol-14_05301721583D 1   1.00000     0.00000     0
Jmol version 14.17.2  2017-05-27 15:31 EXTRACT: ({0:11})
 12 11  0  0  0  0              1 V2000
   0.66102  -0.72414   0.85069 C   0  0  0  0  0  0
   2.00525  -0.71898   0.85301 C   0  0  0  0  0  0
   2.82901   0.46964   0.48184 C   0  0  0  0  0  0
  -0.17025   0.45952   0.48157 C   0  0  0  0  0  0
   0.13700  -1.63033   1.13166 H   0  0  0  0  0  0
   2.53508  -1.62082   1.13665 H   0  0  0  0  0  0
   2.63809   1.30821   1.15950 H   0  0  0  0  0  0
   2.63391   0.78137  -0.54546 H   0  0  0  0  0  0
   3.89455   0.22608   0.55575 H   0  0  0  0  0  0
   0.02269   0.76702  -0.55403 H   0  0  0  0  0  0
   0.02057   1.30107   1.14958 H   0  0  0  0  0  0
  -1.23353   0.21025   0.55543 H   0  0  0  0  0  0
  1  2  2  0  0  0
  1  4  1  0  0  0
  2  3  1  0  0  0
  1  5  1  0  0  0
  2  6  1  0  0  0
  3  7  1  0  0  0
  3  8  1  0  0  0
  3  9  1  0  0  0
  4 10  1  0  0  0
  4 11  1  0  0  0
  4 12  1  0  0  0
M  END
