CIP:4R; BB:P-92.2.1.3;
__Jmol-14_05301721583D 1   1.00000     0.00000     0
Jmol version 14.17.2  2017-05-27 15:31 EXTRACT: ({0:17})
 18 18  0  0  0  0              1 V2000
  -3.93193  -0.34816  -0.94527 C   0  0  0  0  0  0
  -5.25392   0.01126  -0.30624 C   0  0  0  0  0  0
  -5.06299  -1.34934  -0.92093 C   0  0  0  0  0  0
  -2.68189  -0.62981  -0.14365 C   0  0  0  0  0  0
  -1.60798  -1.24830  -1.05580 C   0  0  0  0  0  0
  -0.33776  -1.68646  -0.34149 C   0  0  0  0  0  0
  -2.11325   0.92292   0.54479 Cl  0  0  0  0  0  0
  -3.71006   0.14594  -1.88108 H   0  0  0  0  0  0
  -5.88605   0.71784  -0.82901 H   0  0  0  0  0  0
  -5.30729   0.08443   0.77103 H   0  0  0  0  0  0
  -5.00786  -2.19415  -0.24827 H   0  0  0  0  0  0
  -5.56127  -1.56391  -1.86059 H   0  0  0  0  0  0
  -2.89376  -1.29148   0.70113 H   0  0  0  0  0  0
  -1.34221  -0.54880  -1.85164 H   0  0  0  0  0  0
  -2.03065  -2.12551  -1.56155 H   0  0  0  0  0  0
  -0.54442  -2.48939   0.36811 H   0  0  0  0  0  0
   0.13450  -0.86084   0.20100 H   0  0  0  0  0  0
   0.38828  -2.05826  -1.06820 H   0  0  0  0  0  0
  1  2  1  0  0  0
  1  3  1  0  0  0
  1  4  1  0  0  0
  2  3  1  0  0  0
  4  5  1  0  0  0
  4  7  1  0  0  0
  5  6  1  0  0  0
  1  8  1  0  0  0
  2  9  1  0  0  0
  2 10  1  0  0  0
  3 11  1  0  0  0
  3 12  1  0  0  0
  4 13  1  0  0  0
  5 14  1  0  0  0
  5 15  1  0  0  0
  6 16  1  0  0  0
  6 17  1  0  0  0
  6 18  1  0  0  0
M  END
