CIP:RR;BB:P-16.2.4.4, P-16.5.1.7, P-93.4.2.1.1
__Jmol-14_05291700453D 1   1.00000     0.00000     0
Jmol version 14.17.2  2017-05-27 15:31 EXTRACT: ({0:23})
 24 24  0  0  0  0              1 V2000
  -1.24269  -0.12412   0.12692 C   0  0  0  0  0  0
  -1.97678  -0.93394   1.21658 C   0  0  0  0  0  0
  -3.44737  -0.47914   1.16918 C   0  0  0  0  0  0
  -3.48744   0.67520   0.17287 C   0  0  0  0  0  0
  -2.37367   0.32174  -0.79489 C   0  0  0  0  0  0
  -0.49080   1.08697   0.70360 C   0  0  0  0  0  0
  -1.87361  -2.43889   0.95392 C   0  0  0  0  0  0
  -4.83972   0.87931  -0.49688 C   0  0  0  0  0  0
  -0.51876  -0.73492  -0.41917 H   0  0  0  0  0  0
  -1.55237  -0.73626   2.21104 H   0  0  0  0  0  0
  -3.79563  -0.15476   2.15228 H   0  0  0  0  0  0
  -4.10971  -1.29064   0.85163 H   0  0  0  0  0  0
  -3.24661   1.60204   0.69778 H   0  0  0  0  0  0
  -2.67247  -0.50389  -1.45022 H   0  0  0  0  0  0
  -2.09301   1.16640  -1.43591 H   0  0  0  0  0  0
  -1.14827   1.80045   1.20566 H   0  0  0  0  0  0
   0.02735   1.63142  -0.09680 H   0  0  0  0  0  0
   0.26134   0.77264   1.43032 H   0  0  0  0  0  0
  -2.23777  -2.70085  -0.04784 H   0  0  0  0  0  0
  -2.46079  -3.00525   1.68066 H   0  0  0  0  0  0
  -0.83405  -2.77771   1.02744 H   0  0  0  0  0  0
  -5.14374   0.00252  -1.07336 H   0  0  0  0  0  0
  -4.80360   1.73820  -1.17828 H   0  0  0  0  0  0
  -5.61083   1.07787   0.25154 H   0  0  0  0  0  0
  1  2  1  0  0  0
  1  5  1  0  0  0
  1  6  1  0  0  0
  2  3  1  0  0  0
  2  7  1  0  0  0
  3  4  1  0  0  0
  4  5  1  0  0  0
  4  8  1  0  0  0
  1  9  1  0  0  0
  2 10  1  0  0  0
  3 11  1  0  0  0
  3 12  1  0  0  0
  4 13  1  0  0  0
  5 14  1  0  0  0
  5 15  1  0  0  0
  6 16  1  0  0  0
  6 17  1  0  0  0
  6 18  1  0  0  0
  7 19  1  0  0  0
  7 20  1  0  0  0
  7 21  1  0  0  0
  8 22  1  0  0  0
  8 23  1  0  0  0
  8 24  1  0  0  0
M  END
