CIP:;BB:P-16.2.4.4, P-16.5.1.7, P-93.4.2.1.1
__Jmol-14_05291700433D 1   1.00000     0.00000     0
Jmol version 14.17.2  2017-05-27 15:31 EXTRACT: ({0:14})
 15 15  0  0  0  0              1 V2000
  -0.05271   1.89944  -0.16574 C   0  0  0  0  0  0
   0.22808   0.59533  -0.34508 C   0  0  0  0  0  0
   0.81033   2.85121   0.50231 C   0  0  0  0  0  0
   1.48721  -0.08750   0.10003 C   0  0  0  0  0  0
   2.15275   2.85230   0.51381 C   0  0  0  0  0  0
   3.02882   1.90164  -0.13878 C   0  0  0  0  0  0
   2.75321   0.59699  -0.32249 C   0  0  0  0  0  0
  -1.01090   2.27971  -0.49786 H   0  0  0  0  0  0
  -0.51364  -0.02718  -0.82914 H   0  0  0  0  0  0
   0.29153   3.65822   1.01350 H   0  0  0  0  0  0
   1.49169  -1.09662  -0.32758 H   0  0  0  0  0  0
   1.47761  -0.22772   1.18431 H   0  0  0  0  0  0
   2.66138   3.66020   1.03374 H   0  0  0  0  0  0
   3.99228   2.28316  -0.45380 H   0  0  0  0  0  0
   3.50447  -0.02468  -0.79272 H   0  0  0  0  0  0
  1  2  2  0  0  0
  1  3  1  0  0  0
  2  4  1  0  0  0
  3  5  2  0  0  0
  4  7  1  0  0  0
  5  6  1  0  0  0
  6  7  2  0  0  0
  1  8  1  0  0  0
  2  9  1  0  0  0
  3 10  1  0  0  0
  4 11  1  0  0  0
  4 12  1  0  0  0
  5 13  1  0  0  0
  6 14  1  0  0  0
  7 15  1  0  0  0
M  END
