CIP:RsRrRSS;BB:P-16.2.4.4, P-16.5.1.7, P-93.4.2.1.1
__Jmol-14_05291700433D 1   1.00000     0.00000     0
Jmol version 14.17.2  2017-05-27 15:31 EXTRACT: ({0:35})
 36 35  0  0  0  0              1 V2000
  -0.16642  -1.42792   0.60287 C   0  0  0  0  0  0
   1.26098  -0.91527   0.34494 C   0  0  0  0  0  0
   2.49002  -1.76238   0.97677 C   0  0  0  0  0  0
   3.94631  -1.05771   0.73872 C   0  0  0  0  0  0
   5.44283  -1.48109   1.25080 C   0  0  0  0  0  0
   6.50366  -0.37515   1.60924 C   0  0  0  0  0  0
   6.85846   0.61446   0.48405 C   0  0  0  0  0  0
   3.88302   0.30314   1.12746 O   0  0  0  0  0  0
   1.18838   0.82420   0.78232 Cl  0  0  0  0  0  0
   6.08609   0.53839   3.08961 Cl  0  0  0  0  0  0
   2.21883  -2.25712   2.42567 C   0  0  0  0  0  0
   5.60855  -2.65781   2.28731 C   0  0  0  0  0  0
   1.06624  -3.24278   2.64794 C   0  0  0  0  0  0
   4.53253  -3.95107   1.64264 Cl  0  0  0  0  0  0
   6.98736  -3.28087   2.52780 C   0  0  0  0  0  0
   2.05874  -0.90383   3.58761 Cl  0  0  0  0  0  0
   2.52929  -2.68183   0.38309 H   0  0  0  0  0  0
  -0.89750  -0.88915  -0.01220 H   0  0  0  0  0  0
  -0.48386  -1.25369   1.63446 H   0  0  0  0  0  0
  -0.28085  -2.48564   0.36765 H   0  0  0  0  0  0
   1.39603  -0.91732  -0.74250 H   0  0  0  0  0  0
   4.00883  -0.99727  -0.35376 H   0  0  0  0  0  0
   5.91162  -1.89362   0.35366 H   0  0  0  0  0  0
   7.44600  -0.88800   1.84738 H   0  0  0  0  0  0
   7.86541   1.02180   0.61133 H   0  0  0  0  0  0
   6.19905   1.48887   0.45226 H   0  0  0  0  0  0
   6.84167   0.12983  -0.49448 H   0  0  0  0  0  0
   3.27285   0.38025   1.89329 H   0  0  0  0  0  0
   3.08179  -2.84200   2.71611 H   0  0  0  0  0  0
   5.21772  -2.32588   3.24666 H   0  0  0  0  0  0
   0.12717  -2.75905   2.93973 H   0  0  0  0  0  0
   1.31113  -3.91957   3.47500 H   0  0  0  0  0  0
   0.88329  -3.87175   1.77539 H   0  0  0  0  0  0
   6.94788  -4.00649   3.34537 H   0  0  0  0  0  0
   7.73355  -2.53442   2.82854 H   0  0  0  0  0  0
   7.35426  -3.82999   1.65874 H   0  0  0  0  0  0
  1  2  1  0  0  0
  2  3  1  0  0  0
  2  9  1  0  0  0
  3  4  1  0  0  0
  3 11  1  0  0  0
  3 17  1  0  0  0
  4  5  1  0  0  0
  4  8  1  0  0  0
  5  6  1  0  0  0
  5 12  1  0  0  0
  6  7  1  0  0  0
  6 10  1  0  0  0
 11 13  1  0  0  0
 11 16  1  0  0  0
 12 14  1  0  0  0
 12 15  1  0  0  0
  1 18  1  0  0  0
  1 19  1  0  0  0
  1 20  1  0  0  0
  2 21  1  0  0  0
  4 22  1  0  0  0
  5 23  1  0  0  0
  6 24  1  0  0  0
  7 25  1  0  0  0
  7 26  1  0  0  0
  7 27  1  0  0  0
  8 28  1  0  0  0
 11 29  1  0  0  0
 12 30  1  0  0  0
 13 31  1  0  0  0
 13 32  1  0  0  0
 13 33  1  0  0  0
 15 34  1  0  0  0
 15 35  1  0  0  0
 15 36  1  0  0  0
M  END
