CIP:2R 3S 6R 9S 10S 18R 19S 24R 25S; BB:P-92.5.2.2;
__Jmol-14_05301721583D 1   1.00000     0.00000     0
Jmol version 14.17.2  2017-05-27 15:31 EXTRACT: ({0:60})
 61 60  0  0  0  0              1 V2000
 -10.95777  -3.43034   1.47214 C   0  0  0  0  0  0
 -10.75890  -3.45616  -0.04875 C   0  0  0  0  0  0
  -9.46352  -4.23471  -0.58332 C   0  0  0  0  0  0
  -8.14487  -3.48792  -0.48876 O   0  0  0  0  0  0
  -6.86357  -4.33026  -0.24400 N   0  0  0  0  0  0
  -5.61505  -3.31817  -0.47675 C   0  0  0  0  0  0
  -4.00059  -3.57373  -0.36196 N   0  0  0  0  0  0
  -3.56560  -4.97867   0.03221 C   0  0  0  0  0  0
  -2.29279  -5.39778  -0.59918 C   0  0  0  0  0  0
  -1.76396  -6.83300  -0.24406 C   0  0  0  0  0  0
  -1.49117  -7.73935  -1.44442 C   0  0  0  0  0  0
 -10.85825  -2.11299  -0.55877 O   0  0  0  0  0  0
  -9.48948  -4.66417  -1.94532 O   0  0  0  0  0  0
  -2.18991  -5.11010  -1.99823 O   0  0  0  0  0  0
  -2.55968  -7.50580   0.72798 O   0  0  0  0  0  0
  -5.74998  -2.84432  -2.18717 Cl  0  0  0  0  0  0
  -7.05650  -4.71243   1.16529 C   0  0  0  0  0  0
  -6.01749  -5.44904   1.80125 C   0  0  0  0  0  0
  -6.02091  -7.00101   1.60337 C   0  0  0  0  0  0
  -5.94876  -7.52677   0.17913 C   0  0  0  0  0  0
  -6.18039  -5.20504   3.18264 O   0  0  0  0  0  0
  -7.14455  -7.60030   2.26113 O   0  0  0  0  0  0
  -3.30702  -2.44085   0.46736 O   0  0  0  0  0  0
  -1.80275  -2.43364   0.47353 C   0  0  0  0  0  0
  -0.94213  -1.13910   0.77556 C   0  0  0  0  0  0
  -0.54199  -0.86060   2.22087 C   0  0  0  0  0  0
  -1.26832  -2.84126  -0.78567 O   0  0  0  0  0  0
  -1.48639   0.06197   0.20973 O   0  0  0  0  0  0
 -11.80035  -2.77277   1.75529 H   0  0  0  0  0  0
 -10.06876  -3.02765   1.97470 H   0  0  0  0  0  0
 -11.17115  -4.42067   1.87238 H   0  0  0  0  0  0
 -11.64627  -3.98465  -0.43433 H   0  0  0  0  0  0
  -9.29964  -5.12599   0.02431 H   0  0  0  0  0  0
  -5.83471  -2.41552   0.08107 H   0  0  0  0  0  0
  -1.53192  -4.81911  -0.10322 H   0  0  0  0  0  0
  -0.78815  -6.70868   0.22880 H   0  0  0  0  0  0
  -2.38283  -7.88183  -2.04717 H   0  0  0  0  0  0
  -1.16462  -8.73620  -1.10962 H   0  0  0  0  0  0
  -0.70543  -7.33321  -2.07771 H   0  0  0  0  0  0
 -11.60875  -1.68190  -0.11185 H   0  0  0  0  0  0
 -10.35077  -5.10181  -2.03067 H   0  0  0  0  0  0
  -1.25516  -4.95639  -2.19107 H   0  0  0  0  0  0
  -2.54194  -6.96221   1.54398 H   0  0  0  0  0  0
  -5.05670  -5.01898   1.54539 H   0  0  0  0  0  0
  -5.14277  -7.38660   2.14193 H   0  0  0  0  0  0
  -6.84359  -7.26595  -0.40072 H   0  0  0  0  0  0
  -5.90443  -8.62756   0.18986 H   0  0  0  0  0  0
  -5.06921  -7.16463  -0.34680 H   0  0  0  0  0  0
  -6.16265  -4.22523   3.25437 H   0  0  0  0  0  0
  -7.21018  -7.15731   3.12353 H   0  0  0  0  0  0
  -1.50611  -3.18544   1.21771 H   0  0  0  0  0  0
   0.02243  -1.25340   0.26729 H   0  0  0  0  0  0
  -1.40430  -0.64926   2.84833 H   0  0  0  0  0  0
   0.10906   0.01464   2.27170 H   0  0  0  0  0  0
   0.02038  -1.70840   2.64872 H   0  0  0  0  0  0
  -2.06204  -2.99559  -1.33377 H   0  0  0  0  0  0
  -1.54977  -0.08244  -0.74324 H   0  0  0  0  0  0
  -4.36251  -5.70543  -0.18404 H   0  0  0  0  0  0
  -3.50375  -5.07186   1.12653 H   0  0  0  0  0  0
  -8.00532  -5.25956   1.26727 H   0  0  0  0  0  0
  -7.28101  -3.81372   1.75853 H   0  0  0  0  0  0
  2  1  1  0  0  0
  2  3  1  0  0  0
  2 12  1  0  0  0
  3  4  1  0  0  0
  3 13  1  0  0  0
  4  5  1  0  0  0
  5  6  1  0  0  0
  5 17  1  0  0  0
  6  7  1  0  0  0
  6 16  1  0  0  0
  7  8  1  0  0  0
  7 23  1  0  0  0
  8  9  1  0  0  0
  9 10  1  0  0  0
  9 14  1  0  0  0
 10 11  1  0  0  0
 10 15  1  0  0  0
 17 18  1  0  0  0
 18 19  1  0  0  0
 18 21  1  0  0  0
 19 20  1  0  0  0
 19 22  1  0  0  0
 23 24  1  0  0  0
 24 25  1  0  0  0
 24 27  1  0  0  0
 25 26  1  0  0  0
 25 28  1  0  0  0
  1 29  1  0  0  0
  1 30  1  0  0  0
  1 31  1  0  0  0
  2 32  1  0  0  0
  3 33  1  0  0  0
  6 34  1  0  0  0
  9 35  1  0  0  0
 10 36  1  0  0  0
 11 37  1  0  0  0
 11 38  1  0  0  0
 11 39  1  0  0  0
 12 40  1  0  0  0
 13 41  1  0  0  0
 14 42  1  0  0  0
 15 43  1  0  0  0
 18 44  1  0  0  0
 19 45  1  0  0  0
 20 46  1  0  0  0
 20 47  1  0  0  0
 20 48  1  0  0  0
 21 49  1  0  0  0
 22 50  1  0  0  0
 24 51  1  0  0  0
 25 52  1  0  0  0
 26 53  1  0  0  0
 26 54  1  0  0  0
 26 55  1  0  0  0
 27 56  1  0  0  0
 28 57  1  0  0  0
 58  8  1  0  0  0
 59  8  1  0  0  0
 60 17  1  0  0  0
 61 17  1  0  0  0
M  END
