CIP:R;BB:P-16.2.4.4, P-16.5.1.7, P-93.4.2.1.1
__Jmol-14_05291700433D 1   1.00000     0.00000     0
Jmol version 14.17.2  2017-05-27 15:31 EXTRACT: ({0:11})
 12 11  0  0  0  0              1 V2000
   1.83133  -0.63370  -1.69296 C   0  0  0  0  0  0
   1.72858   0.24889  -2.81955 O   0  0  0  0  0  0
   0.86473  -1.82263  -1.85365 C   0  0  0  0  0  0
   3.28037  -1.14838  -1.63057 C   0  0  0  0  0  0
   1.57237  -0.06374  -0.78882 H   0  0  0  0  0  0
   4.65194   0.32321  -0.97116 I   0  0  0  0  0  0
  -1.13730  -1.22449  -2.21798 I   4  0  0  0  0  0
   0.77942   0.37126  -3.02018 H   0  0  0  0  0  0
   0.90575  -2.44855  -0.96002 H   0  0  0  0  0  0
   1.19837  -2.45212  -2.68799 H   0  0  0  0  0  0
   3.58476  -1.50194  -2.62375 H   0  0  0  0  0  0
   3.34222  -2.01245  -0.95998 H   0  0  0  0  0  0
  1  2  1  0  0  0
  1  3  1  0  0  0
  1  4  1  0  0  0
  1  5  1  0  0  0
  3  7  1  0  0  0
  4  6  1  0  0  0
  2  8  1  0  0  0
  3  9  1  0  0  0
  3 10  1  0  0  0
  4 11  1  0  0  0
  4 12  1  0  0  0
M  END
