CIP:MM;BB:P-16.2.4.4, P-16.5.1.7, P-93.4.2.1.1
__Jmol-14_05291700433D 1   1.00000     0.00000     0
Jmol version 14.17.2  2017-05-27 15:31 EXTRACT: ({0:41})
 42 47  0  0  0  0              1 V2000
   4.15297   4.09989  -0.34222 C   0  0  0  0  0  0
   3.55987   2.88062  -0.57889 C   0  0  0  0  0  0
   3.46275   5.36017   0.08361 C   0  0  0  0  0  0
   2.18949   2.47442  -0.16095 C   0  0  0  0  0  0
   2.07922   5.77292  -0.31604 C   0  0  0  0  0  0
   5.62450   4.14014  -0.40068 C   0  0  0  0  0  0
   4.31321   1.90450  -1.38367 C   0  0  0  0  0  0
   4.18628   6.24242   0.83705 C   0  0  0  0  0  0
   1.57135   1.45076  -0.82720 C   0  0  0  0  0  0
   1.45170   6.78875   0.34294 C   0  0  0  0  0  0
   3.60112   0.85139  -2.06798 C   0  0  0  0  0  0
   3.50268   7.33723   1.49880 C   0  0  0  0  0  0
   5.63200   6.10200   0.97949 C   0  0  0  0  0  0
   5.63112   2.05563  -1.59521 C   0  0  0  0  0  0
   6.32298   3.15968  -0.99773 C   0  0  0  0  0  0
   6.32997   5.15344   0.34236 C   0  0  0  0  0  0
   2.29212   0.68357  -1.83589 C   0  0  0  0  0  0
   2.19743   7.55743   1.31435 C   0  0  0  0  0  0
   1.49092   3.01241   1.01526 C   0  0  0  0  0  0
   1.36228   5.19844  -1.46402 C   0  0  0  0  0  0
   0.18190   1.12778  -0.51331 C   0  0  0  0  0  0
   0.05656   7.10081   0.04701 C   0  0  0  0  0  0
   0.22599   2.67999   1.31461 C   0  0  0  0  0  0
   0.08904   5.51170  -1.74833 C   0  0  0  0  0  0
  -0.47285   1.73069   0.48932 C   0  0  0  0  0  0
  -0.60620   6.47348  -0.93445 C   0  0  0  0  0  0
   4.11291   0.23187  -2.79774 H   0  0  0  0  0  0
   4.06007   7.95965   2.19152 H   0  0  0  0  0  0
   6.16257   6.84127   1.56905 H   0  0  0  0  0  0
   6.20713   1.37048  -2.21024 H   0  0  0  0  0  0
   7.40897   3.14169  -1.01283 H   0  0  0  0  0  0
   7.41110   5.10985   0.43830 H   0  0  0  0  0  0
   1.75369  -0.09106  -2.37093 H   0  0  0  0  0  0
   1.69964   8.36459   1.84048 H   0  0  0  0  0  0
   2.02277   3.68681   1.67632 H   0  0  0  0  0  0
   1.88681   4.50930  -2.11535 H   0  0  0  0  0  0
  -0.33362   0.39728  -1.12741 H   0  0  0  0  0  0
  -0.45222   7.84049   0.65548 H   0  0  0  0  0  0
  -0.27549   3.09263   2.18272 H   0  0  0  0  0  0
  -0.42381   5.07102  -2.59646 H   0  0  0  0  0  0
  -1.51010   1.50480   0.70973 H   0  0  0  0  0  0
  -1.64849   6.68768  -1.14564 H   0  0  0  0  0  0
  1  2  2  0  0  0
  1  3  1  0  0  0
  1  6  1  0  0  0
  2  4  1  0  0  0
  2  7  1  0  0  0
  3  5  1  0  0  0
  3  8  2  0  0  0
  4  9  2  0  0  0
  4 19  1  0  0  0
  5 10  2  0  0  0
  5 20  1  0  0  0
  6 15  2  0  0  0
  6 16  1  0  0  0
  7 11  1  0  0  0
  7 14  2  0  0  0
  8 12  1  0  0  0
  8 13  1  0  0  0
  9 17  1  0  0  0
  9 21  1  0  0  0
 10 18  1  0  0  0
 10 22  1  0  0  0
 11 17  2  0  0  0
 12 18  2  0  0  0
 13 16  2  0  0  0
 14 15  1  0  0  0
 19 23  2  0  0  0
 20 24  2  0  0  0
 21 25  2  0  0  0
 22 26  2  0  0  0
 25 23  1  0  0  0
 26 24  1  0  0  0
 11 27  1  0  0  0
 12 28  1  0  0  0
 13 29  1  0  0  0
 14 30  1  0  0  0
 15 31  1  0  0  0
 16 32  1  0  0  0
 17 33  1  0  0  0
 18 34  1  0  0  0
 19 35  1  0  0  0
 20 36  1  0  0  0
 21 37  1  0  0  0
 22 38  1  0  0  0
 23 39  1  0  0  0
 24 40  1  0  0  0
 25 41  1  0  0  0
 26 42  1  0  0  0
M  END
