CIP:R;BB:P-16.2.4.4, P-16.5.1.7, P-93.4.2.1.1
__Jmol-14_05291700433D 1   1.00000     0.00000     0
Jmol version 14.17.2  2017-05-27 15:31 EXTRACT: ({0:11})
 12 11  0  0  0  0              1 V2000
  -0.43608   0.81949   2.22499 C   0  0  0  0  0  0
  -1.90467   0.89713   1.77966 C   0  0  0  0  0  0
  -2.48283  -0.49642   1.55429 C   0  0  0  0  0  0
   0.41553   0.76878   1.07999 O   0  0  0  0  0  0
  -2.88674   1.74228   3.01783 Cl  0  0  0  0  0  0
  -0.24747  -0.07556   2.83311 H   0  0  0  0  0  0
  -0.14060   1.69421   2.80947 H   0  0  0  0  0  0
  -1.99101   1.47469   0.84952 H   0  0  0  0  0  0
  -3.51415  -0.44526   1.20150 H   0  0  0  0  0  0
  -2.47531  -1.08936   2.47821 H   0  0  0  0  0  0
  -1.90285  -1.04613   0.80444 H   0  0  0  0  0  0
   1.31237   0.57254   1.39578 H   0  0  0  0  0  0
  1  2  1  0  0  0
  1  4  1  0  0  0
  2  3  1  0  0  0
  2  5  1  0  0  0
  1  6  1  0  0  0
  1  7  1  0  0  0
  2  8  1  0  0  0
  3  9  1  0  0  0
  3 10  1  0  0  0
  3 11  1  0  0  0
  4 12  1  0  0  0
M  END
