CIP:SRRSR;BB:P-16.2.4.4, P-16.5.1.7, P-93.4.2.1.1
__Jmol-14_05291700433D 1   1.00000     0.00000     0
Jmol version 14.17.2  2017-05-27 15:31 EXTRACT: ({0:35})
 36 35  0  0  0  0              1 V2000
   0.63217   1.82528   0.57247 C   0  0  0  0  0  0
   2.01846   1.35626   0.13244 C   0  0  0  0  0  0
   3.02001   2.49662  -0.16985 C   0  0  0  0  0  0
   4.43955   1.86986  -0.42726 C   0  0  0  0  0  0
   5.65026   2.83238  -0.17602 C   0  0  0  0  0  0
   6.92631   2.00771   0.14345 C   0  0  0  0  0  0
   8.13822   2.85854   0.53770 C   0  0  0  0  0  0
  -0.04023   0.78039   1.12288 F   0  0  0  0  0  0
   1.88788   0.60349  -0.99498 F   0  0  0  0  0  0
   2.46204   3.42275  -1.29836 C   0  0  0  0  0  0
   1.61359   4.58746  -0.75056 C   0  0  0  0  0  0
   1.64214   6.29849  -1.97386 I   0  0  0  0  0  0
   4.55287   1.25406  -1.70762 O   0  0  0  0  0  0
   5.94045   3.86544  -1.30459 C   0  0  0  0  0  0
   6.45987   5.20433  -0.75045 C   0  0  0  0  0  0
   5.67541   6.72913  -1.69014 Br  0  0  0  0  0  0
   7.27505   1.27820  -0.95474 F   0  0  0  0  0  0
   9.41342   1.86808   1.28938 Cl  0  0  0  0  0  0
   0.03380   2.16850  -0.27895 H   0  0  0  0  0  0
   0.68985   2.61084   1.33035 H   0  0  0  0  0  0
   2.41454   0.68966   0.90922 H   0  0  0  0  0  0
   3.11084   3.08042   0.74835 H   0  0  0  0  0  0
   4.54763   1.04956   0.29512 H   0  0  0  0  0  0
   5.40262   3.38095   0.74130 H   0  0  0  0  0  0
   6.70592   1.29470   0.94187 H   0  0  0  0  0  0
   7.86458   3.63159   1.26682 H   0  0  0  0  0  0
   8.59200   3.32922  -0.33691 H   0  0  0  0  0  0
   1.86416   2.84607  -2.00968 H   0  0  0  0  0  0
   3.26249   3.82373  -1.90850 H   0  0  0  0  0  0
   1.94981   4.86950   0.25273 H   0  0  0  0  0  0
   0.57336   4.26763  -0.64116 H   0  0  0  0  0  0
   3.66748   0.99318  -2.02503 H   0  0  0  0  0  0
   5.07347   4.03865  -1.92909 H   0  0  0  0  0  0
   6.67772   3.46156  -2.00871 H   0  0  0  0  0  0
   7.53619   5.31222  -0.88714 H   0  0  0  0  0  0
   6.21434   5.36421   0.30630 H   0  0  0  0  0  0
  1  2  1  0  0  0
  1  8  1  0  0  0
  2  3  1  0  0  0
  2  9  1  0  0  0
  3  4  1  0  0  0
  3 10  1  0  0  0
  4  5  1  0  0  0
  4 13  1  0  0  0
  5  6  1  0  0  0
  5 14  1  0  0  0
  6  7  1  0  0  0
  6 17  1  0  0  0
  7 18  1  0  0  0
 10 11  1  0  0  0
 11 12  1  0  0  0
 14 15  1  0  0  0
 15 16  1  0  0  0
  1 19  1  0  0  0
  1 20  1  0  0  0
  2 21  1  0  0  0
  3 22  1  0  0  0
  4 23  1  0  0  0
  5 24  1  0  0  0
  6 25  1  0  0  0
  7 26  1  0  0  0
  7 27  1  0  0  0
 10 28  1  0  0  0
 10 29  1  0  0  0
 11 30  1  0  0  0
 11 31  1  0  0  0
 13 32  1  0  0  0
 14 33  1  0  0  0
 14 34  1  0  0  0
 15 35  1  0  0  0
 15 36  1  0  0  0
M  END
