CIP:3Z 4R 5Z 7E 9S 10E; BB:P-93.5.1.4.1;
__Jmol-14_05301721583D 1   1.00000     0.00000     0
Jmol version 14.17.2  2017-05-27 15:31 EXTRACT: ({0:35})
 36 36  0  0  0  0              1 V2000
  -0.50155  -2.27541  -1.44098 C   0  0  0  0  0  0
  -0.60111  -0.71569  -1.48037 C   0  0  0  0  0  0
  -1.48971  -3.41304  -1.62678 C   0  0  0  0  0  0
  -1.59134   0.22481  -2.22315 C   0  0  0  0  0  0
  -2.81641  -3.60248  -1.58922 C   0  0  0  0  0  0
  -3.92527  -2.70644  -1.14319 C   0  0  0  0  0  0
  -2.88833  -0.31545  -2.68435 C   0  0  0  0  0  0
  -4.86286  -2.38038  -2.32860 C   0  0  0  0  0  0
  -5.29663  -0.89247  -2.42157 C   0  0  0  0  0  0
  -4.08574  -0.02512  -2.14337 C   0  0  0  0  0  0
  -0.96738   0.77927  -3.37271 O   0  0  0  0  0  0
  -6.54189  -0.56518  -1.53882 C   0  0  0  0  0  0
  -7.72889  -1.48210  -1.89030 C   0  0  0  0  0  0
  -6.98558   0.89439  -1.71904 C   0  0  0  0  0  0
  -0.01477  -2.50239  -0.48698 H   0  0  0  0  0  0
   0.27424  -2.51157  -2.17361 H   0  0  0  0  0  0
   0.38476  -0.42848  -1.87239 H   0  0  0  0  0  0
  -0.59645  -0.38983  -0.43508 H   0  0  0  0  0  0
  -0.95476  -4.34691  -1.79344 H   0  0  0  0  0  0
  -1.79446   1.07309  -1.55259 H   0  0  0  0  0  0
  -3.17575  -4.57124  -1.92544 H   0  0  0  0  0  0
  -3.51181  -1.84340  -0.61949 H   0  0  0  0  0  0
  -4.49902  -3.23330  -0.37717 H   0  0  0  0  0  0
  -2.80682  -1.05806  -3.47469 H   0  0  0  0  0  0
  -5.72287  -3.05465  -2.29450 H   0  0  0  0  0  0
  -4.38268  -2.64308  -3.27503 H   0  0  0  0  0  0
  -5.59194  -0.70269  -3.45716 H   0  0  0  0  0  0
  -4.14840   0.70945  -1.34242 H   0  0  0  0  0  0
  -0.56297   1.62207  -3.09549 H   0  0  0  0  0  0
  -6.30532  -0.71740  -0.48137 H   0  0  0  0  0  0
  -7.84505  -1.58837  -2.97588 H   0  0  0  0  0  0
  -8.67236  -1.09973  -1.49411 H   0  0  0  0  0  0
  -7.60004  -2.47989  -1.46628 H   0  0  0  0  0  0
  -7.97742   1.07125  -1.28654 H   0  0  0  0  0  0
  -7.02937   1.17615  -2.77316 H   0  0  0  0  0  0
  -6.29908   1.58292  -1.21495 H   0  0  0  0  0  0
  1  2  1  0  0  0
  1  3  1  0  0  0
  2  4  1  0  0  0
  3  5  2  0  0  0
  4  7  1  0  0  0
  4 11  1  0  0  0
  5  6  1  0  0  0
  6  8  1  0  0  0
  7 10  2  0  0  0
  8  9  1  0  0  0
  9 10  1  0  0  0
  9 12  1  0  0  0
 12 13  1  0  0  0
 12 14  1  0  0  0
  1 15  1  0  0  0
  1 16  1  0  0  0
  2 17  1  0  0  0
  2 18  1  0  0  0
  3 19  1  0  0  0
  4 20  1  0  0  0
  5 21  1  0  0  0
  6 22  1  0  0  0
  6 23  1  0  0  0
  7 24  1  0  0  0
  8 25  1  0  0  0
  8 26  1  0  0  0
  9 27  1  0  0  0
 10 28  1  0  0  0
 11 29  1  0  0  0
 12 30  1  0  0  0
 13 31  1  0  0  0
 13 32  1  0  0  0
 13 33  1  0  0  0
 14 34  1  0  0  0
 14 35  1  0  0  0
 14 36  1  0  0  0
M  END
