CIP:1R; BB:P-93.2.5;
__Jmol-14_05301721583D 1   1.00000     0.00000     0
Jmol version 14.17.2  2017-05-27 15:31 EXTRACT: ({0:30})
 31 32  0  0  0  0              1 V2000
   4.68940   0.78286   0.67105 S   0  0  0  0  0  0
   5.32099   1.93718   1.28258 O   2  0  0  0  0  0
   3.89071   0.97636  -0.53281 O   0  0  0  0  0  0
   3.66707  -0.02322   1.98586 C   0  0  0  0  0  0
   5.94223  -0.43186   0.36626 C   0  0  0  0  0  0
   2.48917  -0.81255   1.40484 C   0  0  0  0  0  0
   2.43591  -2.22498   1.23218 C   0  0  0  0  0  0
   1.39560  -0.06520   0.96261 C   0  0  0  0  0  0
   1.38210  -2.82097   0.54358 C   0  0  0  0  0  0
   0.31985  -0.67417   0.33174 C   0  0  0  0  0  0
   0.32219  -2.03851   0.10521 C   0  0  0  0  0  0
   7.35616  -0.14474   0.50190 C   0  0  0  0  0  0
   5.58631  -1.72771   0.36385 C   0  0  0  0  0  0
   8.22561  -1.15955   0.65181 C   0  0  0  0  0  0
   6.51032  -2.80996   0.26997 C   0  0  0  0  0  0
   7.80677  -2.55395   0.47849 C   0  0  0  0  0  0
   8.80562  -3.66238   0.52498 C   0  0  0  0  0  0
   3.29071   0.78702   2.62342 H   0  0  0  0  0  0
   4.31929  -0.62843   2.62913 H   0  0  0  0  0  0
   3.21774  -2.91044   1.55790 H   0  0  0  0  0  0
   1.38917   1.01209   1.07493 H   0  0  0  0  0  0
   1.38989  -3.88709   0.34673 H   0  0  0  0  0  0
  -0.51264  -0.06550  -0.01054 H   0  0  0  0  0  0
  -0.50832  -2.50190  -0.41994 H   0  0  0  0  0  0
   7.66465   0.89031   0.63816 H   0  0  0  0  0  0
   4.63392  -2.00978   0.71593 H   0  0  0  0  0  0
   9.25419  -0.95949   0.92101 H   0  0  0  0  0  0
   6.11959  -3.81481   0.10865 H   0  0  0  0  0  0
   8.78290  -4.24064  -0.40120 H   0  0  0  0  0  0
   8.58134  -4.33977   1.36130 H   0  0  0  0  0  0
   9.82424  -3.29125   0.66257 H   0  0  0  0  0  0
  1  2  2  0  0  0
  1  3  2  0  0  0
  1  4  1  0  0  0
  1  5  1  0  0  0
  4  6  1  0  0  0
  5 12  1  0  0  0
  5 13  2  0  0  0
  6  7  1  0  0  0
  6  8  2  0  0  0
  7  9  2  0  0  0
  8 10  1  0  0  0
  9 11  1  0  0  0
 10 11  2  0  0  0
 12 14  2  0  0  0
 13 15  1  0  0  0
 14 16  1  0  0  0
 15 16  2  0  0  0
 16 17  1  0  0  0
  4 18  1  0  0  0
  4 19  1  0  0  0
  7 20  1  0  0  0
  8 21  1  0  0  0
  9 22  1  0  0  0
 10 23  1  0  0  0
 11 24  1  0  0  0
 12 25  1  0  0  0
 13 26  1  0  0  0
 14 27  1  0  0  0
 15 28  1  0  0  0
 17 29  1  0  0  0
 17 30  1  0  0  0
 17 31  1  0  0  0
M  END
