CIP:;BB:P-16.2.4.4, P-16.5.1.7, P-93.4.2.1.1
__Jmol-14_05291700463D 1   1.00000     0.00000     0
Jmol version 14.17.2  2017-05-27 15:31 EXTRACT: ({0:25})
 26 27  0  0  0  0              1 V2000
  -2.77751  -0.99144  -0.39048 C   0  0  0  0  0  0
  -1.91879  -1.87894   0.50617 C   0  0  0  0  0  0
  -1.78738  -0.04559  -1.20130 C   0  0  0  0  0  0
  -0.51899  -2.32799   0.06517 C   0  0  0  0  0  0
  -0.30341   0.06567  -0.77053 C   0  0  0  0  0  0
   0.40981  -1.18454  -0.32735 C   0  0  0  0  0  0
  -3.72579   0.16226   0.16783 C   0  0  0  0  0  0
  -3.89694  -1.91712  -0.97466 C   0  0  0  0  0  0
  -4.87448  -0.53433   0.77075 C   0  0  0  0  0  0
  -4.94873  -1.73016   0.12940 C   0  0  0  0  0  0
  -2.44977  -2.85112   0.70657 H   0  0  0  0  0  0
  -1.84437  -1.42926   1.51463 H   0  0  0  0  0  0
  -2.08091   0.98198  -1.04084 H   0  0  0  0  0  0
  -1.91273  -0.16776  -2.25658 H   0  0  0  0  0  0
  -0.60312  -3.00173  -0.82505 H   0  0  0  0  0  0
  -0.05092  -2.92987   0.84858 H   0  0  0  0  0  0
  -0.18171   0.83651  -0.02561 H   0  0  0  0  0  0
   0.25324   0.46267  -1.67477 H   0  0  0  0  0  0
   1.12648  -1.51016  -1.04505 H   0  0  0  0  0  0
   1.01518  -0.91339   0.58942 H   0  0  0  0  0  0
  -4.14190   0.77327  -0.63925 H   0  0  0  0  0  0
  -3.26961   0.80399   0.88771 H   0  0  0  0  0  0
  -3.60076  -3.00760  -1.09868 H   0  0  0  0  0  0
  -4.30669  -1.57875  -1.95155 H   0  0  0  0  0  0
  -5.49755  -0.17329   1.53308 H   0  0  0  0  0  0
  -5.66954  -2.47054   0.40757 H   0  0  0  0  0  0
  1  2  1  0  0  0
  1  3  1  0  0  0
  1  7  1  0  0  0
  1  8  1  0  0  0
  2  4  1  0  0  0
  3  5  1  0  0  0
  4  6  1  0  0  0
  5  6  1  0  0  0
  7  9  1  0  0  0
  8 10  1  0  0  0
  9 10  2  0  0  0
  2 11  1  0  0  0
  2 12  1  0  0  0
  3 13  1  0  0  0
  3 14  1  0  0  0
  4 15  1  0  0  0
  4 16  1  0  0  0
  5 17  1  0  0  0
  5 18  1  0  0  0
  6 19  1  0  0  0
  6 20  1  0  0  0
  7 21  1  0  0  0
  7 22  1  0  0  0
  8 23  1  0  0  0
  8 24  1  0  0  0
  9 25  1  0  0  0
 10 26  1  0  0  0
M  END
