CIP:ZZEEEE;BB:P-16.2.4.4, P-16.5.1.7, P-93.4.2.1.1
__Jmol-14_05291700433D 1   1.00000     0.00000     0
Jmol version 14.17.2  2017-05-27 15:31 EXTRACT: ({0:25})
 26 25  0  0  0  0              1 V2000
   0.55512  -3.99392  -1.95237 C   0  0  0  0  0  0
  -0.50005  -4.85026  -1.94049 C   0  0  0  0  0  0
  -0.40222  -6.36959  -1.94205 C   0  0  0  0  0  0
  -1.39056  -7.29411  -2.02112 C   0  0  0  0  0  0
   1.98931  -4.20220  -2.00216 C   0  0  0  0  0  0
  -2.87730  -7.19337  -2.08460 C   0  0  0  0  0  0
   1.12805  -7.17443  -1.75120 Cl  0  0  0  0  0  0
  -1.95512  -4.30653  -1.92829 C   0  0  0  0  0  0
  -2.61802  -2.90595  -1.88550 C   0  0  0  0  0  0
  -3.83766  -2.79927  -1.89598 O   0  0  0  0  0  0
  -1.86644  -1.77665  -1.83306 O   0  0  0  0  0  0
   2.91281  -3.23571  -1.88594 C   0  0  0  0  0  0
   4.36543  -3.57767  -1.92203 C   0  0  0  0  0  0
   0.38287  -2.93834  -1.94376 H   0  0  0  0  0  0
  -1.09199  -8.33792  -2.01365 H   0  0  0  0  0  0
   2.38559  -5.18774  -2.15901 H   0  0  0  0  0  0
  -3.21932  -6.67371  -2.98010 H   0  0  0  0  0  0
  -3.28537  -6.73638  -1.18165 H   0  0  0  0  0  0
  -3.30220  -8.20223  -2.13137 H   0  0  0  0  0  0
  -2.41694  -4.77198  -1.05848 H   0  0  0  0  0  0
  -2.40504  -4.70942  -2.84188 H   0  0  0  0  0  0
  -0.90400  -1.85320  -1.80211 H   0  0  0  0  0  0
   2.64274  -2.19625  -1.74311 H   0  0  0  0  0  0
   4.62016  -4.13286  -2.82764 H   0  0  0  0  0  0
   4.63659  -4.18086  -1.04657 H   0  0  0  0  0  0
   4.97244  -2.66778  -1.90082 H   0  0  0  0  0  0
  1  2  2  0  0  0
  1  5  1  0  0  0
  2  3  1  0  0  0
  2  8  1  0  0  0
  3  4  2  0  0  0
  3  7  1  0  0  0
  4  6  1  0  0  0
  5 12  2  0  0  0
  8  9  1  0  0  0
  9 10  2  0  0  0
  9 11  1  0  0  0
 12 13  1  0  0  0
  1 14  1  0  0  0
  4 15  1  0  0  0
  5 16  1  0  0  0
  6 17  1  0  0  0
  6 18  1  0  0  0
  6 19  1  0  0  0
  8 20  1  0  0  0
  8 21  1  0  0  0
 11 22  1  0  0  0
 12 23  1  0  0  0
 13 24  1  0  0  0
 13 25  1  0  0  0
 13 26  1  0  0  0
M  END
