CIP:8R 19R 23R; BB:P-93.1.4;
__Jmol-14_05301721583D 1   1.00000     0.00000     0
Jmol version 14.17.2  2017-05-27 15:31 EXTRACT: ({0:80})
 81 82  0  0  0  0              1 V2000
   3.29414   1.67962   0.68182 C   0  0  0  0  0  0
   3.38647   3.08530   0.71416 C   0  0  0  0  0  0
   2.05835   1.02563   0.64943 C   0  0  0  0  0  0
   2.23830   3.89020   0.58668 C   0  0  0  0  0  0
   0.91350   1.83659   0.54716 C   0  0  0  0  0  0
   0.98169   3.23995   0.50393 C   0  0  0  0  0  0
   5.52475   1.66841  -0.18395 C   0  0  0  0  0  0
   5.81596   2.95151   0.59023 C   0  0  0  0  0  0
   4.55259   0.87277   0.64750 C   0  0  0  0  0  0
   4.62313   3.74444   0.83187 O   0  0  0  0  0  0
   2.02416  -0.48697   0.61534 C   0  0  0  0  0  0
  -0.34579   1.27049   0.45404 O   0  0  0  0  0  0
  -0.28480   4.03809   0.28048 C   0  0  0  0  0  0
   2.36147   5.40152   0.54943 C   0  0  0  0  0  0
   6.74291   3.85139  -0.30051 C   0  0  0  0  0  0
   6.44534   2.48557   1.98279 C   0  0  0  0  0  0
   8.05745   3.78914   0.39438 C   0  0  0  0  0  0
   9.34399   4.32908  -0.05640 C   0  0  0  0  0  0
  10.35491   3.33949   0.53881 C   0  0  0  0  0  0
  11.65229   3.99031   0.26565 C   0  0  0  0  0  0
  12.74703   3.13661   0.78941 C   0  0  0  0  0  0
  13.96275   3.86010   0.36640 C   0  0  0  0  0  0
  15.16711   3.05345   0.69946 C   0  0  0  0  0  0
  16.27398   3.97423   0.24826 C   0  0  0  0  0  0
  17.55663   3.30258   0.54401 C   0  0  0  0  0  0
  18.69377   4.04195  -0.08965 C   0  0  0  0  0  0
  19.97402   3.36729   0.36927 C   0  0  0  0  0  0
  21.14653   4.07278  -0.28175 C   0  0  0  0  0  0
  10.20846   2.89788   2.04189 C   0  0  0  0  0  0
  15.22800   2.61180   2.18051 C   0  0  0  0  0  0
  19.94901   1.86037   0.06636 C   0  0  0  0  0  0
   6.44120   1.08458  -0.34999 H   0  0  0  0  0  0
   5.09840   1.87926  -1.17116 H   0  0  0  0  0  0
   4.44375  -0.10620   0.18125 H   0  0  0  0  0  0
   4.86214   0.70695   1.68594 H   0  0  0  0  0  0
   2.29354  -0.84283  -0.38655 H   0  0  0  0  0  0
   1.05914  -0.92083   0.87711 H   0  0  0  0  0  0
   2.72704  -0.91154   1.34436 H   0  0  0  0  0  0
  -0.29448   0.32904   0.68488 H   0  0  0  0  0  0
  -1.17033   3.51365   0.63928 H   0  0  0  0  0  0
  -0.41158   4.24321  -0.78582 H   0  0  0  0  0  0
  -0.26667   4.98672   0.82730 H   0  0  0  0  0  0
   2.24397   5.81953   1.55733 H   0  0  0  0  0  0
   1.60851   5.85395  -0.10816 H   0  0  0  0  0  0
   3.32403   5.72858   0.14963 H   0  0  0  0  0  0
   6.40215   4.88541  -0.39715 H   0  0  0  0  0  0
   6.85055   3.46284  -1.31957 H   0  0  0  0  0  0
   7.02543   3.22733   2.52925 H   0  0  0  0  0  0
   7.13100   1.63631   1.82082 H   0  0  0  0  0  0
   5.72179   2.16974   2.72560 H   0  0  0  0  0  0
   8.22340   2.70959   0.46830 H   0  0  0  0  0  0
   7.93513   4.28105   1.35775 H   0  0  0  0  0  0
   9.47789   5.34314   0.34827 H   0  0  0  0  0  0
   9.42911   4.39231  -1.14586 H   0  0  0  0  0  0
  10.31225   2.41320  -0.05561 H   0  0  0  0  0  0
  11.69296   4.97969   0.74374 H   0  0  0  0  0  0
  11.76078   4.14013  -0.81248 H   0  0  0  0  0  0
  12.70815   2.11881   0.36819 H   0  0  0  0  0  0
  12.71121   3.08334   1.87912 H   0  0  0  0  0  0
  13.99390   4.84041   0.86936 H   0  0  0  0  0  0
  13.93386   4.04762  -0.71295 H   0  0  0  0  0  0
  15.16425   2.14396   0.07801 H   0  0  0  0  0  0
  16.23187   4.94888   0.74615 H   0  0  0  0  0  0
  16.19194   4.15827  -0.83475 H   0  0  0  0  0  0
  17.48586   2.28408   0.15657 H   0  0  0  0  0  0
  17.71175   3.26044   1.62859 H   0  0  0  0  0  0
  18.67563   5.09496   0.21120 H   0  0  0  0  0  0
  18.59393   4.01570  -1.18488 H   0  0  0  0  0  0
  20.05542   3.49383   1.45689 H   0  0  0  0  0  0
  21.09167   3.99886  -1.37381 H   0  0  0  0  0  0
  22.09313   3.63985   0.04821 H   0  0  0  0  0  0
  21.14735   5.13438  -0.01676 H   0  0  0  0  0  0
  10.38848   3.71311   2.75160 H   0  0  0  0  0  0
  10.91405   2.10031   2.28883 H   0  0  0  0  0  0
   9.24638   2.45562   2.28858 H   0  0  0  0  0  0
  15.17056   3.47319   2.85817 H   0  0  0  0  0  0
  16.13749   2.06001   2.41004 H   0  0  0  0  0  0
  14.41432   1.92977   2.43626 H   0  0  0  0  0  0
  20.90743   1.39325   0.26494 H   0  0  0  0  0  0
  19.67315   1.66361  -0.97637 H   0  0  0  0  0  0
  19.23608   1.32796   0.70488 H   0  0  0  0  0  0
  1  3  2  0  0  0
  1  9  1  0  0  0
  1  2  1  0  0  0
  2  4  2  0  0  0
  2 10  1  0  0  0
  3  5  1  0  0  0
  3 11  1  0  0  0
  4  6  1  0  0  0
  4 14  1  0  0  0
  5  6  2  0  0  0
  5 12  1  0  0  0
  6 13  1  0  0  0
  7  8  1  0  0  0
  7  9  1  0  0  0
  8 10  1  0  0  0
  8 15  1  0  0  0
  8 16  1  0  0  0
 15 17  1  0  0  0
 17 18  1  0  0  0
 18 19  1  0  0  0
 19 20  1  0  0  0
 19 29  1  0  0  0
 20 21  1  0  0  0
 21 22  1  0  0  0
 22 23  1  0  0  0
 23 24  1  0  0  0
 23 30  1  0  0  0
 24 25  1  0  0  0
 25 26  1  0  0  0
 26 27  1  0  0  0
 27 28  1  0  0  0
 27 31  1  0  0  0
  7 32  1  0  0  0
  7 33  1  0  0  0
  9 34  1  0  0  0
  9 35  1  0  0  0
 11 36  1  0  0  0
 11 37  1  0  0  0
 11 38  1  0  0  0
 12 39  1  0  0  0
 13 40  1  0  0  0
 13 41  1  0  0  0
 13 42  1  0  0  0
 14 43  1  0  0  0
 14 44  1  0  0  0
 14 45  1  0  0  0
 15 46  1  0  0  0
 15 47  1  0  0  0
 16 48  1  0  0  0
 16 49  1  0  0  0
 16 50  1  0  0  0
 17 51  1  0  0  0
 17 52  1  0  0  0
 18 53  1  0  0  0
 18 54  1  0  0  0
 19 55  1  0  0  0
 20 56  1  0  0  0
 20 57  1  0  0  0
 21 58  1  0  0  0
 21 59  1  0  0  0
 22 60  1  0  0  0
 22 61  1  0  0  0
 23 62  1  0  0  0
 24 63  1  0  0  0
 24 64  1  0  0  0
 25 65  1  0  0  0
 25 66  1  0  0  0
 26 67  1  0  0  0
 26 68  1  0  0  0
 27 69  1  0  0  0
 28 70  1  0  0  0
 28 71  1  0  0  0
 28 72  1  0  0  0
 29 73  1  0  0  0
 29 74  1  0  0  0
 29 75  1  0  0  0
 30 76  1  0  0  0
 30 77  1  0  0  0
 30 78  1  0  0  0
 31 79  1  0  0  0
 31 80  1  0  0  0
 31 81  1  0  0  0
M  END
