CIP:EEEERS;BB:P-16.2.4.4, P-16.5.1.7, P-93.4.2.1.1
__Jmol-14_05291700493D 1   1.00000     0.00000     0
Jmol version 14.17.2  2017-05-27 15:31 EXTRACT: ({0:48})
 49 50  0  0  0  0              1 V2000
  -9.28886   0.66215  -0.42709 O   0  0  0  0  0  0
 -10.50958   1.19694  -0.13239 C   0  0  0  0  0  0
  -8.10040   1.16271   0.01672 C   0  0  0  0  0  0
  -7.52468   2.35752  -0.17826 C   0  0  0  0  0  0
 -11.04195   2.39469  -0.42002 C   0  0  0  0  0  0
 -12.52171   2.48350  -0.42002 C   0  0  0  0  0  0
 -13.28380   1.30600  -0.38402 C   0  0  0  0  0  0
 -13.22011   3.68868  -0.52414 C   0  0  0  0  0  0
 -14.64783   1.31410  -0.35615 C   0  0  0  0  0  0
 -14.62664   3.69271  -0.54120 C   0  0  0  0  0  0
 -15.38295   2.48496  -0.46297 C   0  0  0  0  0  0
  -6.06076   2.43749   0.00389 C   0  0  0  0  0  0
  -5.35699   3.64706  -0.05282 C   0  0  0  0  0  0
  -5.30826   1.26392   0.13836 C   0  0  0  0  0  0
  -3.95728   3.64336   0.03115 C   0  0  0  0  0  0
  -3.94916   1.26620   0.23128 C   0  0  0  0  0  0
  -3.21258   2.44353   0.14885 C   0  0  0  0  0  0
 -16.92378   2.39966  -0.38127 C   0  0  0  0  0  0
 -17.34794   2.59653   1.08153 C   0  0  0  0  0  0
 -17.60509   1.05182  -0.87767 C   0  0  0  0  0  0
 -17.12053  -0.07229  -0.83945 O   0  0  0  0  0  0
 -18.89593   1.18127  -1.28745 O   0  0  0  0  0  0
  -1.67582   2.41804   0.16704 C   0  0  0  0  0  0
  -1.14746   3.17875  -1.06193 C   0  0  0  0  0  0
  -0.95054   1.02875   0.26916 C   0  0  0  0  0  0
  -1.45486  -0.08365   0.30615 O   0  0  0  0  0  0
   0.40102   1.12806   0.36133 O   0  0  0  0  0  0
 -17.74677   3.87540  -1.46930 Br  0  0  0  0  0  0
 -11.06134   0.32650   0.18931 H   0  0  0  0  0  0
  -7.60160   0.27605   0.37953 H   0  0  0  0  0  0
  -8.05899   3.20527  -0.59432 H   0  0  0  0  0  0
 -10.44985   3.23881  -0.76081 H   0  0  0  0  0  0
 -12.85669   0.31672  -0.37718 H   0  0  0  0  0  0
 -12.68127   4.63248  -0.58833 H   0  0  0  0  0  0
 -15.10488   0.33887  -0.23672 H   0  0  0  0  0  0
 -15.11736   4.65552  -0.59860 H   0  0  0  0  0  0
  -5.88837   4.58426  -0.17907 H   0  0  0  0  0  0
  -5.73821   0.26769   0.14399 H   0  0  0  0  0  0
  -3.44911   4.60295  -0.01631 H   0  0  0  0  0  0
  -3.50551   0.29133   0.34066 H   0  0  0  0  0  0
 -18.43938   2.61344   1.18537 H   0  0  0  0  0  0
 -16.96475   3.53047   1.49969 H   0  0  0  0  0  0
 -16.98240   1.77933   1.71052 H   0  0  0  0  0  0
 -19.18073   2.11931  -1.31416 H   0  0  0  0  0  0
  -1.38196   2.95757   1.07640 H   0  0  0  0  0  0
  -1.49703   2.71177  -1.99088 H   0  0  0  0  0  0
  -0.05842   3.20139  -1.10667 H   0  0  0  0  0  0
  -1.47759   4.21974  -1.07416 H   0  0  0  0  0  0
   0.73775   2.04080   0.37700 H   0  0  0  0  0  0
  1  2  1  0  0  0
  1  3  1  0  0  0
  2  5  2  0  0  0
  3  4  2  0  0  0
  4 12  1  0  0  0
  5  6  1  0  0  0
  6  7  1  0  0  0
  6  8  2  0  0  0
  7  9  2  0  0  0
  8 10  1  0  0  0
  9 11  1  0  0  0
 10 11  2  0  0  0
 11 18  1  0  0  0
 12 13  1  0  0  0
 12 14  2  0  0  0
 13 15  2  0  0  0
 14 16  1  0  0  0
 15 17  1  0  0  0
 16 17  2  0  0  0
 17 23  1  0  0  0
 18 19  1  0  0  0
 18 20  1  0  0  0
 18 28  1  0  0  0
 20 21  2  0  0  0
 20 22  1  0  0  0
 23 24  1  0  0  0
 23 25  1  0  0  0
 25 26  2  0  0  0
 25 27  1  0  0  0
  2 29  1  0  0  0
  3 30  1  0  0  0
  4 31  1  0  0  0
  5 32  1  0  0  0
  7 33  1  0  0  0
  8 34  1  0  0  0
  9 35  1  0  0  0
 10 36  1  0  0  0
 13 37  1  0  0  0
 14 38  1  0  0  0
 15 39  1  0  0  0
 16 40  1  0  0  0
 19 41  1  0  0  0
 19 42  1  0  0  0
 19 43  1  0  0  0
 22 44  1  0  0  0
 23 45  1  0  0  0
 24 46  1  0  0  0
 24 47  1  0  0  0
 24 48  1  0  0  0
 27 49  1  0  0  0
M  END
