CIP:1E 2E; BB:P-65.1.1.2.2, P-93.4.2.1.1;
__Jmol-14_05301721583D 1   1.00000     0.00000     0
Jmol version 14.17.2  2017-05-27 15:31 EXTRACT: ({0:11})
 12 11  0  0  0  0              1 V2000
  -2.66772  -0.64053   1.19355 C   0  0  0  0  0  0
  -3.54462  -1.65874   1.18341 C   0  0  0  0  0  0
  -5.03056  -1.55860   1.18435 C   0  0  0  0  0  0
  -5.70689  -2.57282   1.17427 O   0  0  0  0  0  0
  -5.58665  -0.32461   1.19656 O   0  0  0  0  0  0
  -1.18182  -0.74065   1.19257 C   0  0  0  0  0  0
  -0.50560   0.27366   1.20268 O   0  0  0  0  0  0
  -0.62542  -1.97441   1.18031 O   0  0  0  0  0  0
  -2.98528   0.39558   1.20382 H   0  0  0  0  0  0
  -3.22700  -2.69486   1.17315 H   0  0  0  0  0  0
  -4.99251   0.44736   1.20422 H   0  0  0  0  0  0
  -1.21943  -2.74644   1.17261 H   0  0  0  0  0  0
  1  2  2  0  0  0
  1  6  1  0  0  0
  2  3  1  0  0  0
  3  4  2  0  0  0
  3  5  1  0  0  0
  6  7  2  0  0  0
  6  8  1  0  0  0
  1  9  1  0  0  0
  2 10  1  0  0  0
  5 11  1  0  0  0
  8 12  1  0  0  0
M  END
