CIP:1S 4R; BB:P-44.4.1.12.2, P-93.5.3.1;
__Jmol-14_05301721583D 1   1.00000     0.00000     0
Jmol version 14.17.2  2017-05-27 15:31 EXTRACT: ({0:30})
 31 33  0  0  0  0              1 V2000
   2.09963   1.54088   0.11416 C   0  0  0  0  0  0
   3.35692   2.31861  -0.25465 C   0  0  0  0  0  0
   2.45708   0.10682  -0.28595 C   0  0  0  0  0  0
   4.50022   1.38443   0.13774 C   0  0  0  0  0  0
   3.95910  -0.02473  -0.15666 C   0  0  0  0  0  0
   5.66158   1.60497  -0.66823 O   0  0  0  0  0  0
   4.98510   1.52539   1.59302 C   0  0  0  0  0  0
   6.76982   1.09529   0.07695 C   0  0  0  0  0  0
   6.49230   1.54181   1.48959 C   0  0  0  0  0  0
   1.67016   1.69289   1.58292 C   0  0  0  0  0  0
   0.95042   1.94371  -0.63874 O   0  0  0  0  0  0
   0.15982   1.78258   1.52793 C   0  0  0  0  0  0
  -0.17992   1.46088   0.09477 C   0  0  0  0  0  0
   3.41518   3.29794   0.23782 H   0  0  0  0  0  0
   3.37789   2.53543  -1.33115 H   0  0  0  0  0  0
   2.16558  -0.08342  -1.32910 H   0  0  0  0  0  0
   1.93513  -0.64954   0.31257 H   0  0  0  0  0  0
   4.37328  -0.43173  -1.08420 H   0  0  0  0  0  0
   4.21192  -0.74328   0.62663 H   0  0  0  0  0  0
   4.63735   0.71572   2.23979 H   0  0  0  0  0  0
   4.64324   2.45969   2.05784 H   0  0  0  0  0  0
   7.70767   1.48849  -0.31779 H   0  0  0  0  0  0
   6.78690   0.00297  -0.00306 H   0  0  0  0  0  0
   6.98819   0.91251   2.23761 H   0  0  0  0  0  0
   6.85359   2.56421   1.62427 H   0  0  0  0  0  0
   2.06084   2.61139   2.03061 H   0  0  0  0  0  0
   2.00934   0.86630   2.21039 H   0  0  0  0  0  0
  -0.15549   2.80356   1.75861 H   0  0  0  0  0  0
  -0.33939   1.11318   2.23898 H   0  0  0  0  0  0
  -0.27697   0.38014  -0.05865 H   0  0  0  0  0  0
  -1.09975   1.93627  -0.25018 H   0  0  0  0  0  0
  1  2  1  0  0  0
  1  3  1  0  0  0
  1 10  1  0  0  0
  1 11  1  0  0  0
  2  4  1  0  0  0
  3  5  1  0  0  0
  4  5  1  0  0  0
  4  6  1  0  0  0
  4  7  1  0  0  0
  6  8  1  0  0  0
  7  9  1  0  0  0
  8  9  1  0  0  0
 10 12  1  0  0  0
 11 13  1  0  0  0
 12 13  1  0  0  0
  2 14  1  0  0  0
  2 15  1  0  0  0
  3 16  1  0  0  0
  3 17  1  0  0  0
  5 18  1  0  0  0
  5 19  1  0  0  0
  7 20  1  0  0  0
  7 21  1  0  0  0
  8 22  1  0  0  0
  8 23  1  0  0  0
  9 24  1  0  0  0
  9 25  1  0  0  0
 10 26  1  0  0  0
 10 27  1  0  0  0
 12 28  1  0  0  0
 12 29  1  0  0  0
 13 30  1  0  0  0
 13 31  1  0  0  0
M  END
