CIP:2R; BB:P-93.1.2.1;
__Jmol-14_05301721583D 1   1.00000     0.00000     0
Jmol version 14.17.2  2017-05-27 15:31 EXTRACT: ({0:14})
 15 14  0  0  0  0              1 V2000
  -3.62898   0.76610  -0.00365 C   0  0  0  0  0  0
  -2.65569  -0.40400  -0.06074 C   0  0  0  0  0  0
  -1.21006   0.08968  -0.16269 C   0  0  0  0  0  0
  -0.19967  -1.04616  -0.18396 C   0  0  0  0  0  0
  -2.96748  -1.21337  -1.19575 O   0  0  0  0  0  0
  -4.65798   0.40735   0.11099 H   0  0  0  0  0  0
  -3.60216   1.34739  -0.92877 H   0  0  0  0  0  0
  -3.40332   1.43466   0.83670 H   0  0  0  0  0  0
  -2.77086  -1.02555   0.83708 H   0  0  0  0  0  0
  -0.98307   0.75063   0.67622 H   0  0  0  0  0  0
  -1.08232   0.67553  -1.08168 H   0  0  0  0  0  0
  -0.33914  -1.69209  -1.05822 H   0  0  0  0  0  0
  -0.28096  -1.66194   0.71260 H   0  0  0  0  0  0
   0.81980  -0.64504  -0.22717 H   0  0  0  0  0  0
  -3.76303  -1.72662  -0.98423 H   0  0  0  0  0  0
  1  2  1  0  0  0
  2  3  1  0  0  0
  2  5  1  0  0  0
  3  4  1  0  0  0
  1  6  1  0  0  0
  1  7  1  0  0  0
  1  8  1  0  0  0
  2  9  1  0  0  0
  3 10  1  0  0  0
  3 11  1  0  0  0
  4 12  1  0  0  0
  4 13  1  0  0  0
  4 14  1  0  0  0
  5 15  1  0  0  0
M  END
