CIP:ZZZZ;BB:P-16.2.4.4, P-16.5.1.7, P-93.4.2.1.1
__Jmol-14_05291700453D 1   1.00000     0.00000     0
Jmol version 14.17.2  2017-05-27 15:31 EXTRACT: ({0:25})
 26 26  0  0  0  0              1 V2000
   4.81014  -0.91974   0.63540 C   0  0  0  0  0  0
   4.06638   0.38125   0.52073 C   0  0  0  0  0  0
   2.56086   0.39106   0.63398 C   0  0  0  0  0  0
   1.81097  -0.91039   0.63532 C   0  0  0  0  0  0
   2.53887  -2.22957   0.68453 C   0  0  0  0  0  0
   4.06983  -2.23375   0.68681 C   0  0  0  0  0  0
   6.15371  -0.90509   0.66633 C   0  0  0  0  0  0
   6.99502   0.33431   0.60012 C   0  0  0  0  0  0
   0.46781  -0.88944   0.61815 C   0  0  0  0  0  0
  -0.36792   0.35415   0.59029 C   0  0  0  0  0  0
   4.33099   0.83976  -0.43977 H   0  0  0  0  0  0
   4.44144   1.06732   1.29098 H   0  0  0  0  0  0
   2.18844   1.00903  -0.19317 H   0  0  0  0  0  0
   2.29955   0.93425   1.55050 H   0  0  0  0  0  0
   2.20351  -2.83976  -0.16542 H   0  0  0  0  0  0
   2.20141  -2.77333   1.57690 H   0  0  0  0  0  0
   4.40235  -2.77874   1.58165 H   0  0  0  0  0  0
   4.40297  -2.84479  -0.15806 H   0  0  0  0  0  0
   6.70092  -1.84312   0.73179 H   0  0  0  0  0  0
   6.82169   0.97394   1.47427 H   0  0  0  0  0  0
   6.79061   0.90457  -0.31017 H   0  0  0  0  0  0
   8.05442   0.07284   0.59085 H   0  0  0  0  0  0
  -0.08385  -1.82720   0.63333 H   0  0  0  0  0  0
  -0.19142   0.92403  -0.32586 H   0  0  0  0  0  0
  -0.16165   0.99172   1.45941 H   0  0  0  0  0  0
  -1.42870   0.09764   0.61764 H   0  0  0  0  0  0
  1  2  1  0  0  0
  1  6  1  0  0  0
  1  7  2  0  0  0
  2  3  1  0  0  0
  3  4  1  0  0  0
  4  5  1  0  0  0
  4  9  2  0  0  0
  5  6  1  0  0  0
  7  8  1  0  0  0
  9 10  1  0  0  0
  2 11  1  0  0  0
  2 12  1  0  0  0
  3 13  1  0  0  0
  3 14  1  0  0  0
  5 15  1  0  0  0
  5 16  1  0  0  0
  6 17  1  0  0  0
  6 18  1  0  0  0
  7 19  1  0  0  0
  8 20  1  0  0  0
  8 21  1  0  0  0
  8 22  1  0  0  0
  9 23  1  0  0  0
 10 24  1  0  0  0
 10 25  1  0  0  0
 10 26  1  0  0  0
M  END
