CIP:ZZ;BB:P-16.2.4.4, P-16.5.1.7, P-93.4.2.1.1
__Jmol-14_05291700443D 1   1.00000     0.00000     0
Jmol version 14.17.2  2017-05-27 15:31 EXTRACT: ({0:25})
 26 27  0  0  0  0              1 V2000
   4.20157  -2.79001  -0.53903 N   0  0  0  0  0  0
   5.52148  -3.24430  -0.43371 O   0  0  0  0  0  0
   4.02018  -1.48409  -0.58765 C   0  0  0  0  0  0
   5.83620   2.03595  -0.87134 C   0  0  0  0  0  0
   7.19845   1.62820  -1.06984 C   0  0  0  0  0  0
   7.51462   0.33870  -0.87278 C   0  0  0  0  0  0
   6.47137  -0.65179  -0.65000 C   0  0  0  0  0  0
   5.14973  -0.33329  -0.57054 C   0  0  0  0  0  0
   4.90958   1.12358  -0.55419 C   0  0  0  0  0  0
   8.39560   2.82465  -1.39369 Cl  0  0  0  0  0  0
   0.20304  -1.92580  -1.13919 C   0  0  0  0  0  0
  -0.26790  -0.55857  -1.17703 C   0  0  0  0  0  0
   0.60718   0.43137  -0.99946 C   0  0  0  0  0  0
   1.97825   0.12433  -0.70151 C   0  0  0  0  0  0
   2.50982  -1.11929  -0.76949 C   0  0  0  0  0  0
   1.52034  -2.18826  -0.99394 C   0  0  0  0  0  0
   5.45339  -4.17173  -0.73714 H   0  0  0  0  0  0
   5.61025   3.09801  -0.82132 H   0  0  0  0  0  0
   8.54063  -0.00232  -0.93916 H   0  0  0  0  0  0
   6.85260  -1.65749  -0.64554 H   0  0  0  0  0  0
   4.04146   1.56635  -0.11630 H   0  0  0  0  0  0
  -0.51998  -2.72283  -1.25370 H   0  0  0  0  0  0
  -1.31242  -0.34680  -1.39008 H   0  0  0  0  0  0
   0.33625   1.47924  -1.09280 H   0  0  0  0  0  0
   2.47662   1.00817  -0.41013 H   0  0  0  0  0  0
   1.85078  -3.21894  -0.98568 H   0  0  0  0  0  0
  1  2  1  0  0  0
  1  3  2  0  0  0
  3  8  1  0  0  0
  3 15  1  0  0  0
  4  9  2  0  0  0
  4  5  1  0  0  0
  5  6  2  0  0  0
  5 10  1  0  0  0
  6  7  1  0  0  0
  7  8  2  0  0  0
  8  9  1  0  0  0
 11 16  2  0  0  0
 11 12  1  0  0  0
 12 13  2  0  0  0
 13 14  1  0  0  0
 14 15  2  0  0  0
 15 16  1  0  0  0
  2 17  1  0  0  0
  4 18  1  0  0  0
  6 19  1  0  0  0
  7 20  1  0  0  0
  9 21  1  0  0  0
 11 22  1  0  0  0
 12 23  1  0  0  0
 13 24  1  0  0  0
 14 25  1  0  0  0
 16 26  1  0  0  0
M  END
