CIP:ZZREE;BB:P-16.2.4.4, P-16.5.1.7, P-93.4.2.1.1
__Jmol-14_05291700433D 1   1.00000     0.00000     0
Jmol version 14.17.2  2017-05-27 15:31 EXTRACT: ({0:37})
 38 37  0  0  0  0              1 V2000
  13.00841   2.47158  -1.21054 C   0  0  0  0  0  0
  11.62583   2.66911  -1.71991 C   0  0  0  0  0  0
  10.52167   2.07942  -1.24538 C   0  0  0  0  0  0
   9.20537   2.33559  -1.91540 C   0  0  0  0  0  0
   7.96280   1.94897  -1.14129 C   0  0  0  0  0  0
   6.73871   2.29847  -1.96405 C   0  0  0  0  0  0
   5.59077   1.38644  -1.56378 C   0  0  0  0  0  0
   4.28652   2.13554  -1.67836 C   0  0  0  0  0  0
   3.22775   1.49672  -0.79034 C   0  0  0  0  0  0
   1.89747   1.74281  -1.46621 C   0  0  0  0  0  0
   0.65595   1.15504  -0.86531 C   0  0  0  0  0  0
  -0.55347   1.65728  -1.15628 C   0  0  0  0  0  0
  -0.79021   2.84466  -2.03674 C   0  0  0  0  0  0
   5.53494   0.25697  -2.44583 O   0  0  0  0  0  0
  10.58368   0.99172   0.11638 Cl  0  0  0  0  0  0
   0.78992  -0.25205   0.13506 Cl  0  0  0  0  0  0
  13.21735   1.41554  -1.00610 H   0  0  0  0  0  0
  13.17007   3.06153  -0.30287 H   0  0  0  0  0  0
  13.72550   2.80103  -1.96316 H   0  0  0  0  0  0
  11.52881   3.33487  -2.57461 H   0  0  0  0  0  0
   9.20077   1.77828  -2.86129 H   0  0  0  0  0  0
   9.13077   3.39616  -2.17820 H   0  0  0  0  0  0
   7.91768   2.47699  -0.17844 H   0  0  0  0  0  0
   7.98051   0.87448  -0.92084 H   0  0  0  0  0  0
   6.93645   2.19350  -3.03916 H   0  0  0  0  0  0
   6.50877   3.35245  -1.78548 H   0  0  0  0  0  0
   5.72327   1.01151  -0.53974 H   0  0  0  0  0  0
   3.97856   2.13820  -2.73428 H   0  0  0  0  0  0
   4.38912   3.18067  -1.37536 H   0  0  0  0  0  0
   3.25534   1.95848   0.20400 H   0  0  0  0  0  0
   3.41622   0.42874  -0.65294 H   0  0  0  0  0  0
   1.95550   1.35309  -2.48992 H   0  0  0  0  0  0
   1.78954   2.82899  -1.54386 H   0  0  0  0  0  0
  -1.43211   1.16001  -0.76682 H   0  0  0  0  0  0
  -0.03766   2.94964  -2.82604 H   0  0  0  0  0  0
  -0.79789   3.76257  -1.44012 H   0  0  0  0  0  0
  -1.75566   2.75347  -2.53992 H   0  0  0  0  0  0
   6.43740  -0.01348  -2.67980 H   0  0  0  0  0  0
  1  2  1  0  0  0
  2  3  2  0  0  0
  3  4  1  0  0  0
  3 15  1  0  0  0
  4  5  1  0  0  0
  5  6  1  0  0  0
  6  7  1  0  0  0
  7  8  1  0  0  0
  7 14  1  0  0  0
  8  9  1  0  0  0
  9 10  1  0  0  0
 10 11  1  0  0  0
 11 12  2  0  0  0
 11 16  1  0  0  0
 12 13  1  0  0  0
  1 17  1  0  0  0
  1 18  1  0  0  0
  1 19  1  0  0  0
  2 20  1  0  0  0
  4 21  1  0  0  0
  4 22  1  0  0  0
  5 23  1  0  0  0
  5 24  1  0  0  0
  6 25  1  0  0  0
  6 26  1  0  0  0
  7 27  1  0  0  0
  8 28  1  0  0  0
  8 29  1  0  0  0
  9 30  1  0  0  0
  9 31  1  0  0  0
 10 32  1  0  0  0
 10 33  1  0  0  0
 12 34  1  0  0  0
 13 35  1  0  0  0
 13 36  1  0  0  0
 13 37  1  0  0  0
 14 38  1  0  0  0
M  END
