CIP:EEZZ;BB:P-16.2.4.4, P-16.5.1.7, P-93.4.2.1.1
__Jmol-14_05291700453D 1   1.00000     0.00000     0
Jmol version 14.17.2  2017-05-27 15:31 EXTRACT: ({0:25})
 26 26  0  0  0  0              1 V2000
   0.02916   1.11195  -1.17760 C   0  0  0  0  0  0
   0.68969  -0.13882  -0.53280 C   0  0  0  0  0  0
   0.55521   2.51221  -0.82269 C   0  0  0  0  0  0
   1.89054  -0.93771  -1.10688 C   0  0  0  0  0  0
   1.95495   2.75500  -1.26547 C   0  0  0  0  0  0
   2.97665   2.63461  -0.40116 C   0  0  0  0  0  0
   3.16603  -0.28066  -1.65055 C   0  0  0  0  0  0
   4.34966   2.52861  -0.81125 C   0  0  0  0  0  0
   4.95598   1.32803  -0.88050 C   0  0  0  0  0  0
   4.24609   0.03247  -0.59057 C   0  0  0  0  0  0
  -0.99664   1.11885  -0.78748 H   0  0  0  0  0  0
  -0.07605   0.99144  -2.25681 H   0  0  0  0  0  0
  -0.11270  -0.88437  -0.59818 H   0  0  0  0  0  0
   0.84358   0.04433   0.53306 H   0  0  0  0  0  0
   0.45353   2.68011   0.25233 H   0  0  0  0  0  0
  -0.08732   3.26653  -1.29589 H   0  0  0  0  0  0
   1.49910  -1.55464  -1.92203 H   0  0  0  0  0  0
   2.19352  -1.65294  -0.33267 H   0  0  0  0  0  0
   2.13353   2.93519  -2.31909 H   0  0  0  0  0  0
   2.77285   2.38062   0.63412 H   0  0  0  0  0  0
   2.90615   0.56243  -2.28737 H   0  0  0  0  0  0
   3.62120  -0.99427  -2.34103 H   0  0  0  0  0  0
   4.88240   3.44035  -1.05062 H   0  0  0  0  0  0
   6.00057   1.28139  -1.16515 H   0  0  0  0  0  0
   4.99229  -0.77391  -0.58706 H   0  0  0  0  0  0
   3.83967   0.04746   0.42415 H   0  0  0  0  0  0
  1  2  1  0  0  0
  1  3  1  0  0  0
  2  4  1  0  0  0
  3  5  1  0  0  0
  4  7  1  0  0  0
  5  6  2  0  0  0
  6  8  1  0  0  0
  7 10  1  0  0  0
  8  9  2  0  0  0
  9 10  1  0  0  0
  1 11  1  0  0  0
  1 12  1  0  0  0
  2 13  1  0  0  0
  2 14  1  0  0  0
  3 15  1  0  0  0
  3 16  1  0  0  0
  4 17  1  0  0  0
  4 18  1  0  0  0
  5 19  1  0  0  0
  6 20  1  0  0  0
  7 21  1  0  0  0
  7 22  1  0  0  0
  8 23  1  0  0  0
  9 24  1  0  0  0
 10 25  1  0  0  0
 10 26  1  0  0  0
M  END
