CIP:1R; BB:P-92.2.1.1.1;
__Jmol-14_05301721583D 1   1.00000     0.00000     0
Jmol version 14.17.2  2017-05-27 15:31 EXTRACT: ({0:15})
 16 15  0  0  0  0              1 V2000
  -2.10107  -0.59403   0.17309 C   0  0  0  0  0  0
  -2.11942  -2.12749   0.14321 C   0  0  0  0  0  0
  -0.89929  -0.09001   0.79156 O   0  0  0  0  0  0
   0.32693  -0.52530   0.19847 C   0  0  0  0  0  0
  -3.51706   0.04669   1.13543 S   0  0  0  0  0  0
  -4.89846  -0.44842   0.07366 C   0  0  0  0  0  0
  -2.15952  -0.18931  -0.84133 H   0  0  0  0  0  0
  -3.04521  -2.53022  -0.27985 H   0  0  0  0  0  0
  -1.97256  -2.54881   1.13946 H   0  0  0  0  0  0
  -1.30523  -2.51649  -0.47830 H   0  0  0  0  0  0
   0.29307  -0.44232  -0.89399 H   0  0  0  0  0  0
   0.54577  -1.55790   0.49603 H   0  0  0  0  0  0
   1.13300   0.10727   0.57397 H   0  0  0  0  0  0
  -5.06944  -1.52759   0.13428 H   0  0  0  0  0  0
  -4.71588  -0.15778  -0.96031 H   0  0  0  0  0  0
  -5.80742   0.05670   0.41874 H   0  0  0  0  0  0
  1  2  1  0  0  0
  1  3  1  0  0  0
  1  5  1  0  0  0
  3  4  1  0  0  0
  5  6  1  0  0  0
  1  7  1  0  0  0
  2  8  1  0  0  0
  2  9  1  0  0  0
  2 10  1  0  0  0
  4 11  1  0  0  0
  4 12  1  0  0  0
  4 13  1  0  0  0
  6 14  1  0  0  0
  6 15  1  0  0  0
  6 16  1  0  0  0
M  END
