CIP:SR;BB:P-16.2.4.4, P-16.5.1.7, P-93.4.2.1.1
__Jmol-14_05291700433D 1   1.00000     0.00000     0
Jmol version 14.17.2  2017-05-27 15:31 EXTRACT: ({0:30})
 31 33  0  0  0  0              1 V2000
  -2.13064   1.49973  -0.08356 C   0  0  0  0  0  0
  -3.40354   2.24395   0.30052 C   0  0  0  0  0  0
  -2.45875   0.05080   0.28705 C   0  0  0  0  0  0
  -4.52754   1.29484  -0.11133 C   0  0  0  0  0  0
  -3.95777  -0.10870   0.15446 C   0  0  0  0  0  0
  -5.69315   1.47514   0.69849 O   0  0  0  0  0  0
  -5.01519   1.45555  -1.56363 C   0  0  0  0  0  0
  -6.79076   0.95827  -0.05740 C   0  0  0  0  0  0
  -6.52241   1.43910  -1.46052 C   0  0  0  0  0  0
  -1.70436   1.69042  -1.54874 C   0  0  0  0  0  0
  -0.98988   1.91047   0.67788 O   0  0  0  0  0  0
  -0.19617   1.80977  -1.49130 C   0  0  0  0  0  0
   0.15007   1.46588  -0.06486 C   0  0  0  0  0  0
  -3.48177   3.23173  -0.17189 H   0  0  0  0  0  0
  -3.42893   2.43827   1.38121 H   0  0  0  0  0  0
  -2.16343  -0.15470   1.32622 H   0  0  0  0  0  0
  -1.92147  -0.68238  -0.32657 H   0  0  0  0  0  0
  -4.36356  -0.54291   1.07334 H   0  0  0  0  0  0
  -4.19587  -0.81612  -0.64342 H   0  0  0  0  0  0
  -4.65099   0.66652  -2.22665 H   0  0  0  0  0  0
  -4.69247   2.40593  -2.00915 H   0  0  0  0  0  0
  -7.73644   1.32412   0.34489 H   0  0  0  0  0  0
  -6.78555  -0.13557   0.00029 H   0  0  0  0  0  0
  -7.00536   0.81522  -2.22143 H   0  0  0  0  0  0
  -6.90449   2.45646  -1.57445 H   0  0  0  0  0  0
  -2.11370   2.60971  -1.97775 H   0  0  0  0  0  0
  -2.02660   0.87006  -2.19309 H   0  0  0  0  0  0
   0.09824   2.84146  -1.70096 H   0  0  0  0  0  0
   0.31660   1.16534  -2.21565 H   0  0  0  0  0  0
   0.26915   0.38443   0.06651 H   0  0  0  0  0  0
   1.06000   1.95279   0.29010 H   0  0  0  0  0  0
  1  2  1  0  0  0
  1  3  1  0  0  0
  1 10  1  0  0  0
  1 11  1  0  0  0
  2  4  1  0  0  0
  3  5  1  0  0  0
  4  5  1  0  0  0
  4  6  1  0  0  0
  4  7  1  0  0  0
  6  8  1  0  0  0
  7  9  1  0  0  0
  8  9  1  0  0  0
 10 12  1  0  0  0
 11 13  1  0  0  0
 12 13  1  0  0  0
  2 14  1  0  0  0
  2 15  1  0  0  0
  3 16  1  0  0  0
  3 17  1  0  0  0
  5 18  1  0  0  0
  5 19  1  0  0  0
  7 20  1  0  0  0
  7 21  1  0  0  0
  8 22  1  0  0  0
  8 23  1  0  0  0
  9 24  1  0  0  0
  9 25  1  0  0  0
 10 26  1  0  0  0
 10 27  1  0  0  0
 12 28  1  0  0  0
 12 29  1  0  0  0
 13 30  1  0  0  0
 13 31  1  0  0  0
M  END
