CIP:R;BB:P-16.2.4.4, P-16.5.1.7, P-93.4.2.1.1
__Jmol-14_05291700463D 1   1.00000     0.00000     0
Jmol version 14.17.2  2017-05-27 15:31 EXTRACT: ({0:20})
 21 22  0  0  0  0              1 V2000
   3.04677   1.26609  -1.22525 C   0  0  0  0  0  0
   1.91994   2.07410  -0.59813 C   0  0  0  0  0  0
   4.34932   1.72949  -0.67283 C   0  0  0  0  0  0
   2.60921   2.98721   0.31863 N   0  0  0  0  0  0
   3.96352   3.12435  -0.22486 C   0  0  0  0  0  0
   0.88070   1.20189   0.07143 C   0  0  0  0  0  0
   1.15224   2.89219  -1.54244 N   0  0  0  0  0  0
  -0.47896   1.57221  -0.40207 C   0  0  0  0  0  0
  -0.20370   2.94723  -0.97525 C   0  0  0  0  0  0
   2.93413   0.33939  -2.01832 O   0  0  0  0  0  0
   1.10039   0.28692   0.85547 O   0  0  0  0  0  0
   5.13610   1.72917  -1.43518 H   0  0  0  0  0  0
   4.62503   1.08972   0.17589 H   0  0  0  0  0  0
   2.12607   3.88266   0.39566 H   0  0  0  0  0  0
   3.96233   3.81302  -1.08203 H   0  0  0  0  0  0
   4.66193   3.52534   0.51722 H   0  0  0  0  0  0
   1.55827   3.81525  -1.65142 H   0  0  0  0  0  0
  -1.19514   1.59834   0.42776 H   0  0  0  0  0  0
  -0.79528   0.86096  -1.17558 H   0  0  0  0  0  0
  -0.94516   3.22814  -1.73057 H   0  0  0  0  0  0
  -0.24738   3.70370  -0.17865 H   0  0  0  0  0  0
  2  1  1  0  0  0
  1  3  1  0  0  0
  1 10  2  0  0  0
  2  4  1  0  0  0
  2  6  1  0  0  0
  2  7  1  0  0  0
  3  5  1  0  0  0
  4  5  1  0  0  0
  6  8  1  0  0  0
  6 11  2  0  0  0
  7  9  1  0  0  0
  8  9  1  0  0  0
  3 12  1  0  0  0
  3 13  1  0  0  0
  4 14  1  0  0  0
  5 15  1  0  0  0
  5 16  1  0  0  0
  7 17  1  0  0  0
  8 18  1  0  0  0
  8 19  1  0  0  0
  9 20  1  0  0  0
  9 21  1  0  0  0
M  END
