CIP:EEEEREEEE;BB:P-16.2.4.4, P-16.5.1.7, P-93.4.2.1.1
__Jmol-14_05291700443D 1   1.00000     0.00000     0
Jmol version 14.17.2  2017-05-27 15:31 EXTRACT: ({0:45})
 46 45  0  0  0  0              1 V2000
  -0.36824  -2.59168  -0.73677 C   0  0  0  0  0  0
   0.91867  -1.94999  -1.11428 C   0  0  0  0  0  0
   2.10262  -2.48144  -0.78219 C   0  0  0  0  0  0
   3.33455  -1.85621  -1.16401 C   0  0  0  0  0  0
   4.52039  -2.34661  -0.79078 C   0  0  0  0  0  0
   5.77976  -1.67991  -1.23555 C   0  0  0  0  0  0
   6.94408  -2.62538  -1.08673 C   0  0  0  0  0  0
   8.07186  -1.89756  -1.24048 O   0  0  0  0  0  0
   9.25332  -2.53961  -0.78539 C   0  0  0  0  0  0
  10.42345  -1.63182  -1.11466 C   0  0  0  0  0  0
  11.53146  -2.27354  -0.46479 O   0  0  0  0  0  0
  12.74154  -1.68026  -0.60986 C   0  0  0  0  0  0
  13.80588  -2.75102  -0.66299 C   0  0  0  0  0  0
  15.06043  -2.12498  -1.19209 C   0  0  0  0  0  0
  16.27068  -2.53573  -0.80565 C   0  0  0  0  0  0
  17.47194  -1.87320  -1.23327 C   0  0  0  0  0  0
  18.67867  -2.34868  -0.89884 C   0  0  0  0  0  0
  19.94484  -1.67360  -1.28955 C   0  0  0  0  0  0
   6.91151  -3.82148  -0.83755 O   0  0  0  0  0  0
  10.13038  -0.15386  -0.70950 C   0  0  0  0  0  0
  10.83495   0.78336  -1.52084 O   0  0  0  0  0  0
  12.91698  -0.47582  -0.72695 O   0  0  0  0  0  0
  -0.45612  -2.68109   0.34792 H   0  0  0  0  0  0
  -0.45812  -3.57933  -1.19372 H   0  0  0  0  0  0
  -1.20377  -1.98015  -1.09204 H   0  0  0  0  0  0
   0.86541  -1.02364  -1.67536 H   0  0  0  0  0  0
   2.14839  -3.40695  -0.21988 H   0  0  0  0  0  0
   3.28672  -0.95884  -1.77383 H   0  0  0  0  0  0
   4.58308  -3.23404  -0.16992 H   0  0  0  0  0  0
   5.96359  -0.81105  -0.59541 H   0  0  0  0  0  0
   5.72463  -1.36693  -2.28177 H   0  0  0  0  0  0
   9.38434  -3.51526  -1.26494 H   0  0  0  0  0  0
   9.18827  -2.70398   0.30034 H   0  0  0  0  0  0
  10.60061  -1.68162  -2.19833 H   0  0  0  0  0  0
  13.48047  -3.53211  -1.35532 H   0  0  0  0  0  0
  13.93772  -3.16890   0.33997 H   0  0  0  0  0  0
  14.96601  -1.28494  -1.87313 H   0  0  0  0  0  0
  16.36477  -3.38381  -0.13508 H   0  0  0  0  0  0
  17.38144  -0.96137  -1.81408 H   0  0  0  0  0  0
  18.76851  -3.25912  -0.31727 H   0  0  0  0  0  0
  20.02000  -0.69058  -0.82322 H   0  0  0  0  0  0
  20.01708  -1.57071  -2.37784 H   0  0  0  0  0  0
  20.79889  -2.27060  -0.95304 H   0  0  0  0  0  0
  10.36811   0.03857   0.33996 H   0  0  0  0  0  0
   9.08044   0.11000  -0.86634 H   0  0  0  0  0  0
  11.72381   0.88331  -1.11939 H   0  0  0  0  0  0
  1  2  1  0  0  0
  2  3  2  0  0  0
  3  4  1  0  0  0
  4  5  2  0  0  0
  5  6  1  0  0  0
  6  7  1  0  0  0
  7  8  1  0  0  0
  7 19  2  0  0  0
  8  9  1  0  0  0
  9 10  1  0  0  0
 10 11  1  0  0  0
 10 20  1  0  0  0
 11 12  1  0  0  0
 12 13  1  0  0  0
 12 22  2  0  0  0
 13 14  1  0  0  0
 14 15  2  0  0  0
 15 16  1  0  0  0
 16 17  2  0  0  0
 17 18  1  0  0  0
 20 21  1  0  0  0
  1 23  1  0  0  0
  1 24  1  0  0  0
  1 25  1  0  0  0
  2 26  1  0  0  0
  3 27  1  0  0  0
  4 28  1  0  0  0
  5 29  1  0  0  0
  6 30  1  0  0  0
  6 31  1  0  0  0
  9 32  1  0  0  0
  9 33  1  0  0  0
 10 34  1  0  0  0
 13 35  1  0  0  0
 13 36  1  0  0  0
 14 37  1  0  0  0
 15 38  1  0  0  0
 16 39  1  0  0  0
 17 40  1  0  0  0
 18 41  1  0  0  0
 18 42  1  0  0  0
 18 43  1  0  0  0
 20 44  1  0  0  0
 20 45  1  0  0  0
 21 46  1  0  0  0
M  END
