CIP:S;BB:P-16.2.4.4, P-16.5.1.7, P-93.4.2.1.1
__Jmol-14_05291700443D 1   1.00000     0.00000     0
Jmol version 14.17.2  2017-05-27 15:31 EXTRACT: ({0:26})
 27 27  0  0  0  0              1 V2000
   2.48879   0.56193   0.15109 P   0  0  0  0  0  0
   3.90787   1.52351  -0.28850 C   0  0  0  0  0  0
   2.53438  -0.45954   1.27071 O   0  0  0  0  0  0
   1.95916  -0.26442  -1.39046 C   0  0  0  0  0  0
   1.22212   1.88322   0.55837 C   0  0  0  0  0  0
   1.17742   3.04308  -0.44403 C   0  0  0  0  0  0
   0.13804   4.12769  -0.29615 C   0  0  0  0  0  0
   4.55824   3.55265  -1.44760 C   0  0  0  0  0  0
   5.51338   3.80632  -0.39001 C   0  0  0  0  0  0
   3.88713   2.39113  -1.47091 C   0  0  0  0  0  0
   5.71867   2.88081   0.56491 C   0  0  0  0  0  0
   4.86089   1.72231   0.63831 C   0  0  0  0  0  0
   1.69915   0.44415  -2.18108 H   0  0  0  0  0  0
   1.09039  -0.89476  -1.19598 H   0  0  0  0  0  0
   2.76953  -0.90645  -1.75253 H   0  0  0  0  0  0
   1.48709   2.28125   1.54293 H   0  0  0  0  0  0
   0.24030   1.41905   0.66395 H   0  0  0  0  0  0
   1.08714   2.63081  -1.44879 H   0  0  0  0  0  0
   2.11569   3.58768  -0.37920 H   0  0  0  0  0  0
   0.42826   4.84641   0.47621 H   0  0  0  0  0  0
  -0.85868   3.72788  -0.09370 H   0  0  0  0  0  0
   0.12235   4.68274  -1.24262 H   0  0  0  0  0  0
   4.39710   4.31871  -2.20270 H   0  0  0  0  0  0
   6.08891   4.72230  -0.41425 H   0  0  0  0  0  0
   3.20353   2.17917  -2.28782 H   0  0  0  0  0  0
   6.44602   3.03646   1.35122 H   0  0  0  0  0  0
   4.85855   1.14627   1.56139 H   0  0  0  0  0  0
  1  2  1  0  0  0
  1  3  2  0  0  0
  1  4  1  0  0  0
  1  5  1  0  0  0
  2 10  1  0  0  0
  2 12  2  0  0  0
  5  6  1  0  0  0
  6  7  1  0  0  0
  8  9  1  0  0  0
  8 10  2  0  0  0
  9 11  2  0  0  0
 11 12  1  0  0  0
  4 13  1  0  0  0
  4 14  1  0  0  0
  4 15  1  0  0  0
  5 16  1  0  0  0
  5 17  1  0  0  0
  6 18  1  0  0  0
  6 19  1  0  0  0
  7 20  1  0  0  0
  7 21  1  0  0  0
  7 22  1  0  0  0
  8 23  1  0  0  0
  9 24  1  0  0  0
 10 25  1  0  0  0
 11 26  1  0  0  0
 12 27  1  0  0  0
M  END
