CIP:2E 3E 4E 5E 20S 21R 24S 26R 27S 30R 39E 40E 43E 44E; BB:P-93.6;
__Jmol-14_05301721583D 1   1.00000     0.00000     0
Jmol version 14.17.2  2017-05-27 15:31 EXTRACT: ({0:100})
101106  0  0  0  0              1 V2000
  14.40366  -0.50759   4.41177 O   0  0  0  0  0  0
  15.62657  -0.44681   3.78209 C   0  0  0  0  0  0
  13.38729  -1.25085   3.87320 C   0  0  0  0  0  0
  12.92596  -2.32917   4.53230 C   0  0  0  0  0  0
  16.68597  -0.97264   4.41365 C   0  0  0  0  0  0
  18.06714  -0.48672   4.32024 C   0  0  0  0  0  0
  18.34353   0.87813   4.10621 C   0  0  0  0  0  0
  19.10403  -1.32322   4.74900 C   0  0  0  0  0  0
  19.60594   1.39895   4.39763 C   0  0  0  0  0  0
  20.35967  -0.80818   5.04201 C   0  0  0  0  0  0
  20.60459   0.55236   4.89461 C   0  0  0  0  0  0
  11.61831  -2.94321   4.26189 C   0  0  0  0  0  0
  11.41447  -4.32213   4.41205 C   0  0  0  0  0  0
  10.52652  -2.12752   3.93110 C   0  0  0  0  0  0
  10.16201  -4.88735   4.12218 C   0  0  0  0  0  0
   9.29207  -2.68169   3.62453 C   0  0  0  0  0  0
   9.11496  -4.05280   3.69675 C   0  0  0  0  0  0
  21.83880   1.03931   5.33608 O   0  0  0  0  0  0
   7.87220  -4.55814   3.28637 O   0  0  0  0  0  0
   5.67015  -3.71993   4.22179 C   0  0  0  0  0  0
   6.94696  -4.60687   4.40168 C   0  0  0  0  0  0
   4.36193  -4.46139   3.89922 C   0  0  0  0  0  0
   6.74529  -6.10182   4.72468 C   0  0  0  0  0  0
   4.13505  -5.92148   4.33896 C   0  0  0  0  0  0
   5.35179  -6.69778   4.85989 C   0  0  0  0  0  0
  24.05412   0.30657   4.39446 C   0  0  0  0  0  0
  22.76542   1.17721   4.22919 C   0  0  0  0  0  0
  25.32015   1.06695   4.84541 C   0  0  0  0  0  0
  22.93528   2.69234   3.98652 C   0  0  0  0  0  0
  25.54547   2.53008   4.39844 C   0  0  0  0  0  0
  24.32888   3.30011   3.86165 C   0  0  0  0  0  0
   3.32252  -6.70641   3.28891 C   0  0  0  0  0  0
   3.59337  -7.81877   2.86057 O   0  0  0  0  0  0
   2.17912  -6.06909   2.91459 O   0  0  0  0  0  0
  26.34213   3.33602   5.45095 C   0  0  0  0  0  0
  26.05823   4.45223   5.86041 O   0  0  0  0  0  0
  27.48560   2.71856   5.85187 O   0  0  0  0  0  0
   5.85426  -2.52024   3.37121 O   0  0  0  0  0  0
   4.82253  -1.54636   3.44603 C   0  0  0  0  0  0
   5.00324  -0.21335   3.33118 C   0  0  0  0  0  0
   3.93646   0.84280   3.37843 C   0  0  0  0  0  0
  23.83377  -0.94560   5.16449 O   0  0  0  0  0  0
  24.83875  -1.95274   5.10484 C   0  0  0  0  0  0
  24.63796  -3.27236   5.31992 C   0  0  0  0  0  0
  25.68527  -4.36155   5.33616 C   0  0  0  0  0  0
   2.55313   0.57164   3.49331 C   0  0  0  0  0  0
   4.30568   2.19716   3.28906 C   0  0  0  0  0  0
   1.60382   1.59947   3.49979 C   0  0  0  0  0  0
   3.35854   3.22675   3.29442 C   0  0  0  0  0  0
   2.00203   2.92474   3.39508 C   0  0  0  0  0  0
  27.06291  -4.07827   5.38883 C   0  0  0  0  0  0
  25.33108  -5.73892   5.37016 C   0  0  0  0  0  0
  28.02662  -5.09128   5.45743 C   0  0  0  0  0  0
  26.30223  -6.74744   5.35178 C   0  0  0  0  0  0
  27.64887  -6.42638   5.40198 C   0  0  0  0  0  0
  15.64748   0.28236   2.98173 H   0  0  0  0  0  0
  12.91252  -0.75872   3.03055 H   0  0  0  0  0  0
  13.49688  -2.72481   5.36476 H   0  0  0  0  0  0
  16.49873  -1.64903   5.24030 H   0  0  0  0  0  0
  17.55671   1.56245   3.80783 H   0  0  0  0  0  0
  18.91809  -2.37830   4.93544 H   0  0  0  0  0  0
  19.78045   2.46718   4.29406 H   0  0  0  0  0  0
  21.13915  -1.45388   5.43649 H   0  0  0  0  0  0
  12.23163  -4.96901   4.72500 H   0  0  0  0  0  0
  10.62595  -1.05030   3.88978 H   0  0  0  0  0  0
  10.02319  -5.95873   4.21297 H   0  0  0  0  0  0
   8.47453  -2.04123   3.31606 H   0  0  0  0  0  0
   5.53474  -3.30227   5.21801 H   0  0  0  0  0  0
   7.44416  -4.18454   5.28272 H   0  0  0  0  0  0
   4.09294  -4.31445   2.84803 H   0  0  0  0  0  0
   3.59922  -3.90545   4.45727 H   0  0  0  0  0  0
   7.25869  -6.29442   5.67593 H   0  0  0  0  0  0
   7.30864  -6.71764   4.01454 H   0  0  0  0  0  0
   3.44881  -5.88632   5.19062 H   0  0  0  0  0  0
   5.18296  -6.87949   5.92775 H   0  0  0  0  0  0
   5.38440  -7.70953   4.43852 H   0  0  0  0  0  0
  24.26123  -0.02356   3.37699 H   0  0  0  0  0  0
  22.28341   0.78087   3.32388 H   0  0  0  0  0  0
  26.14518   0.52232   4.37487 H   0  0  0  0  0  0
  25.50084   0.93501   5.91570 H   0  0  0  0  0  0
  22.37323   3.27466   4.72592 H   0  0  0  0  0  0
  22.41173   2.93034   3.05056 H   0  0  0  0  0  0
  26.23934   2.49271   3.55246 H   0  0  0  0  0  0
  24.28156   4.31186   4.28052 H   0  0  0  0  0  0
  24.50646   3.48369   2.79611 H   0  0  0  0  0  0
   2.01958  -5.20612   3.34741 H   0  0  0  0  0  0
  27.66102   1.85500   5.43189 H   0  0  0  0  0  0
   3.83777  -1.97079   3.56445 H   0  0  0  0  0  0
   6.01410   0.14143   3.18507 H   0  0  0  0  0  0
  25.82526  -1.54789   4.91127 H   0  0  0  0  0  0
  23.62126  -3.60261   5.51204 H   0  0  0  0  0  0
   2.19292  -0.44326   3.56938 H   0  0  0  0  0  0
   5.35391   2.47279   3.20581 H   0  0  0  0  0  0
   0.54333   1.36249   3.58099 H   0  0  0  0  0  0
   3.67447   4.26169   3.21541 H   0  0  0  0  0  0
   1.26536   3.72246   3.39136 H   0  0  0  0  0  0
  27.41754  -3.05413   5.41713 H   0  0  0  0  0  0
  24.30456  -6.07760   5.44087 H   0  0  0  0  0  0
  29.07564  -4.84423   5.57256 H   0  0  0  0  0  0
  26.00045  -7.79364   5.33779 H   0  0  0  0  0  0
  28.40230  -7.21126   5.43171 H   0  0  0  0  0  0
  1  2  1  0  0  0
  1  3  1  0  0  0
  2  5  2  0  0  0
  3  4  2  0  0  0
  4 12  1  0  0  0
  5  6  1  0  0  0
  6  7  1  0  0  0
  6  8  2  0  0  0
  7  9  2  0  0  0
  8 10  1  0  0  0
  9 11  1  0  0  0
 10 11  2  0  0  0
 11 18  1  0  0  0
 12 13  1  0  0  0
 12 14  2  0  0  0
 13 15  2  0  0  0
 14 16  1  0  0  0
 15 17  1  0  0  0
 16 17  2  0  0  0
 17 19  1  0  0  0
 27 18  1  0  0  0
 21 19  1  0  0  0
 20 21  1  0  0  0
 20 22  1  0  0  0
 20 38  1  0  0  0
 21 23  1  0  0  0
 22 24  1  0  0  0
 23 25  1  0  0  0
 24 25  1  0  0  0
 24 32  1  0  0  0
 26 27  1  0  0  0
 26 28  1  0  0  0
 26 42  1  0  0  0
 27 29  1  0  0  0
 28 30  1  0  0  0
 29 31  1  0  0  0
 30 31  1  0  0  0
 30 35  1  0  0  0
 32 33  2  0  0  0
 32 34  1  0  0  0
 35 36  2  0  0  0
 35 37  1  0  0  0
 38 39  1  0  0  0
 39 40  2  0  0  0
 40 41  1  0  0  0
 41 46  1  0  0  0
 41 47  2  0  0  0
 42 43  1  0  0  0
 43 44  2  0  0  0
 44 45  1  0  0  0
 45 51  1  0  0  0
 45 52  2  0  0  0
 46 48  2  0  0  0
 47 49  1  0  0  0
 48 50  1  0  0  0
 49 50  2  0  0  0
 51 53  2  0  0  0
 52 54  1  0  0  0
 53 55  1  0  0  0
 54 55  2  0  0  0
  2 56  1  0  0  0
  3 57  1  0  0  0
  4 58  1  0  0  0
  5 59  1  0  0  0
  7 60  1  0  0  0
  8 61  1  0  0  0
  9 62  1  0  0  0
 10 63  1  0  0  0
 13 64  1  0  0  0
 14 65  1  0  0  0
 15 66  1  0  0  0
 16 67  1  0  0  0
 20 68  1  0  0  0
 21 69  1  0  0  0
 22 70  1  0  0  0
 22 71  1  0  0  0
 23 72  1  0  0  0
 23 73  1  0  0  0
 24 74  1  0  0  0
 25 75  1  0  0  0
 25 76  1  0  0  0
 26 77  1  0  0  0
 27 78  1  0  0  0
 28 79  1  0  0  0
 28 80  1  0  0  0
 29 81  1  0  0  0
 29 82  1  0  0  0
 30 83  1  0  0  0
 31 84  1  0  0  0
 31 85  1  0  0  0
 34 86  1  0  0  0
 37 87  1  0  0  0
 39 88  1  0  0  0
 40 89  1  0  0  0
 43 90  1  0  0  0
 44 91  1  0  0  0
 46 92  1  0  0  0
 47 93  1  0  0  0
 48 94  1  0  0  0
 49 95  1  0  0  0
 50 96  1  0  0  0
 51 97  1  0  0  0
 52 98  1  0  0  0
 53 99  1  0  0  0
 54100  1  0  0  0
 55101  1  0  0  0
M  END
