CIP:EEEESS;BB:P-16.2.4.4, P-16.5.1.7, P-93.4.2.1.1
__Jmol-14_05291700493D 1   1.00000     0.00000     0
Jmol version 14.17.2  2017-05-27 15:31 EXTRACT: ({0:48})
 49 50  0  0  0  0              1 V2000
   9.30881   0.63720   1.28282 O   0  0  0  0  0  0
  10.54965   0.46279   0.79535 C   0  0  0  0  0  0
   8.22733   0.63666   0.47935 C   0  0  0  0  0  0
   7.50292   1.74463   0.58049 C   0  0  0  0  0  0
  11.39918   1.41951   1.14812 C   0  0  0  0  0  0
  12.82655   1.23676   1.26719 C   0  0  0  0  0  0
  13.38226  -0.03229   1.15320 C   0  0  0  0  0  0
  13.62566   2.33176   1.58822 C   0  0  0  0  0  0
  14.74092  -0.18112   1.22044 C   0  0  0  0  0  0
  15.00195   2.17305   1.69091 C   0  0  0  0  0  0
  15.57938   0.90857   1.45978 C   0  0  0  0  0  0
   6.08506   1.83868   0.33223 C   0  0  0  0  0  0
   5.49286   3.09114   0.46473 C   0  0  0  0  0  0
   5.30654   0.71110   0.11981 C   0  0  0  0  0  0
   4.11994   3.21298   0.35182 C   0  0  0  0  0  0
   3.94326   0.83711   0.02201 C   0  0  0  0  0  0
   3.30316   2.08354   0.14761 C   0  0  0  0  0  0
  17.07687   0.76289   1.30348 C   0  0  0  0  0  0
  17.41113   1.00861  -0.17119 C   0  0  0  0  0  0
  17.66809  -0.59979   1.73825 C   0  0  0  0  0  0
  17.13075  -1.69585   1.65863 O   0  0  0  0  0  0
  18.94235  -0.50699   2.19481 O   0  0  0  0  0  0
   1.78692   2.24192   0.06945 C   0  0  0  0  0  0
   1.28081   2.97864   1.32633 C   0  0  0  0  0  0
   0.93436   0.95872  -0.16123 C   0  0  0  0  0  0
   1.32023  -0.19947  -0.22223 O   0  0  0  0  0  0
  -0.38613   1.21661  -0.34063 O   0  0  0  0  0  0
  10.72604  -0.55159   0.44321 H   0  0  0  0  0  0
   7.96699  -0.35121   0.10663 H   0  0  0  0  0  0
   7.95460   2.60283   1.06328 H   0  0  0  0  0  0
  10.99830   2.35665   1.52247 H   0  0  0  0  0  0
  12.79007  -0.91984   0.97723 H   0  0  0  0  0  0
  13.18929   3.31908   1.73447 H   0  0  0  0  0  0
  15.11338  -1.17975   1.02213 H   0  0  0  0  0  0
  15.61106   3.04730   1.89070 H   0  0  0  0  0  0
   6.09397   3.97050   0.67529 H   0  0  0  0  0  0
   5.73155  -0.28896   0.05513 H   0  0  0  0  0  0
   3.69906   4.21119   0.44443 H   0  0  0  0  0  0
   3.41505  -0.08688  -0.14106 H   0  0  0  0  0  0
  17.54737   1.53784   1.92491 H   0  0  0  0  0  0
  16.93957   0.25654  -0.81820 H   0  0  0  0  0  0
  18.48842   0.95943  -0.34841 H   0  0  0  0  0  0
  17.05781   1.98902  -0.50767 H   0  0  0  0  0  0
  19.29263   0.40317   2.20274 H   0  0  0  0  0  0
   1.60342   2.87150  -0.81183 H   0  0  0  0  0  0
   1.48695   2.39512   2.23161 H   0  0  0  0  0  0
   0.20652   3.16042   1.29708 H   0  0  0  0  0  0
   1.75085   3.95658   1.45778 H   0  0  0  0  0  0
  -0.61427   2.16413  -0.32814 H   0  0  0  0  0  0
  1  2  1  0  0  0
  1  3  1  0  0  0
  2  5  2  0  0  0
  3  4  2  0  0  0
  4 12  1  0  0  0
  5  6  1  0  0  0
  6  7  1  0  0  0
  6  8  2  0  0  0
  7  9  2  0  0  0
  8 10  1  0  0  0
  9 11  1  0  0  0
 10 11  2  0  0  0
 11 18  1  0  0  0
 12 13  1  0  0  0
 12 14  2  0  0  0
 13 15  2  0  0  0
 14 16  1  0  0  0
 15 17  1  0  0  0
 16 17  2  0  0  0
 17 23  1  0  0  0
 18 19  1  0  0  0
 18 20  1  0  0  0
 20 21  2  0  0  0
 20 22  1  0  0  0
 23 24  1  0  0  0
 23 25  1  0  0  0
 25 26  2  0  0  0
 25 27  1  0  0  0
  2 28  1  0  0  0
  3 29  1  0  0  0
  4 30  1  0  0  0
  5 31  1  0  0  0
  7 32  1  0  0  0
  8 33  1  0  0  0
  9 34  1  0  0  0
 10 35  1  0  0  0
 13 36  1  0  0  0
 14 37  1  0  0  0
 15 38  1  0  0  0
 16 39  1  0  0  0
 18 40  1  0  0  0
 19 41  1  0  0  0
 19 42  1  0  0  0
 19 43  1  0  0  0
 22 44  1  0  0  0
 23 45  1  0  0  0
 24 46  1  0  0  0
 24 47  1  0  0  0
 24 48  1  0  0  0
 27 49  1  0  0  0
M  END
