CIP:R;BB:P-16.2.4.4, P-16.5.1.7, P-93.4.2.1.1
__Jmol-14_05291700443D 1   1.00000     0.00000     0
Jmol version 14.17.2  2017-05-27 15:31 EXTRACT: ({0:22})
 23 23  0  0  0  0              1 V2000
  -2.88873  -3.23048  -2.76948 C   0  0  0  0  0  0
  -3.91780  -2.30425  -2.55667 C   0  0  0  0  0  0
  -1.55660  -2.86396  -2.64114 C   0  0  0  0  0  0
  -3.59683  -0.96940  -2.26192 C   0  0  0  0  0  0
  -1.23574  -1.54349  -2.30893 C   0  0  0  0  0  0
  -2.25423  -0.57546  -2.13944 C   0  0  0  0  0  0
   0.18517  -1.17678  -2.10292 N   0  3  0  0  0  0
   1.03680  -2.06617  -2.23412 O   0  5  0  0  0  0
   0.43705  -0.00846  -1.80230 O   0  0  0  0  0  0
  -5.60724  -2.98446  -2.51341 S   0  0  0  0  0  0
  -6.40247  -1.63177  -2.89686 O   0  0  0  0  0  0
  -5.70044  -3.92077  -3.67813 O   0  0  0  0  0  0
  -7.81945  -1.80660  -2.74713 C   0  0  0  0  0  0
  -8.51642  -0.46840  -2.64403 C   0  0  0  0  0  0
  -3.12706  -4.26277  -3.00545 H   0  0  0  0  0  0
  -0.78578  -3.62117  -2.78036 H   0  0  0  0  0  0
  -4.38044  -0.23711  -2.09823 H   0  0  0  0  0  0
  -2.01848   0.45519  -1.89206 H   0  0  0  0  0  0
  -8.03184  -2.35789  -1.82158 H   0  0  0  0  0  0
  -8.21786  -2.37739  -3.59094 H   0  0  0  0  0  0
  -8.58644   0.01190  -3.62558 H   0  0  0  0  0  0
  -7.97668   0.21030  -1.98310 H   0  0  0  0  0  0
  -9.52892  -0.61316  -2.25389 H   0  0  0  0  0  0
  1  2  1  0  0  0
  1  3  2  0  0  0
  2  4  2  0  0  0
  2 10  1  0  0  0
  3  5  1  0  0  0
  4  6  1  0  0  0
  5  6  2  0  0  0
  5  7  1  0  0  0
  7  8  1  0  0  0
  7  9  2  0  0  0
 10 11  1  0  0  0
 10 12  2  0  0  0
 11 13  1  0  0  0
 13 14  1  0  0  0
  1 15  1  0  0  0
  3 16  1  0  0  0
  4 17  1  0  0  0
  6 18  1  0  0  0
 13 19  1  0  0  0
 13 20  1  0  0  0
 14 21  1  0  0  0
 14 22  1  0  0  0
 14 23  1  0  0  0
M  END
