CIP:SrR;BB:P-16.2.4.4, P-16.5.1.7, P-93.4.2.1.1
__Jmol-14_05291700433D 1   1.00000     0.00000     0
Jmol version 14.17.2  2017-05-27 15:31 EXTRACT: ({0:19})
 20 19  0  0  0  0              1 V2000
  -0.34178   0.18138   1.45045 C   0  0  0  0  0  0
   0.72713   0.84291   2.32432 C   0  0  0  0  0  0
   2.12541   0.77204   1.64390 C   0  0  0  0  0  0
   3.31527   0.74301   2.65410 C   0  0  0  0  0  0
   4.57270   0.14102   2.01815 C   0  0  0  0  0  0
   2.32015   1.96306   0.23184 S   0  0  0  0  0  0
   0.16520   2.53300   2.79990 S   0  0  0  0  0  0
   3.76851   2.34987   3.42215 S   0  0  0  0  0  0
  -0.46273   0.68588   0.48433 H   0  0  0  0  0  0
  -1.31494   0.15707   1.94551 H   0  0  0  0  0  0
  -0.06836  -0.85660   1.23971 H   0  0  0  0  0  0
   0.76487   0.27112   3.25926 H   0  0  0  0  0  0
   2.16365  -0.20331   1.14532 H   0  0  0  0  0  0
   3.03939   0.08202   3.48637 H   0  0  0  0  0  0
   5.38911   0.04997   2.73833 H   0  0  0  0  0  0
   4.93664   0.73262   1.16884 H   0  0  0  0  0  0
   4.36723  -0.86597   1.64544 H   0  0  0  0  0  0
   1.42256   2.86427   0.67511 H   0  0  0  0  0  0
  -0.85475   2.15851   3.58205 H   0  0  0  0  0  0
   2.52821   2.72997   3.75600 H   0  0  0  0  0  0
  1  2  1  0  0  0
  2  3  1  0  0  0
  2  7  1  0  0  0
  3  4  1  0  0  0
  3  6  1  0  0  0
  4  5  1  0  0  0
  4  8  1  0  0  0
  1  9  1  0  0  0
  1 10  1  0  0  0
  1 11  1  0  0  0
  2 12  1  0  0  0
  3 13  1  0  0  0
  4 14  1  0  0  0
  5 15  1  0  0  0
  5 16  1  0  0  0
  5 17  1  0  0  0
  6 18  1  0  0  0
  7 19  1  0  0  0
  8 20  1  0  0  0
M  END
