CIP:ssssss;BB:P-16.2.4.4, P-16.5.1.7, P-93.4.2.1.1
__Jmol-14_05291700453D 1   1.00000     0.00000     0
Jmol version 14.17.2  2017-05-27 15:31 EXTRACT: ({0:17})
 18 18  0  0  0  0              1 V2000
   1.43009   3.20781   0.62214 C   0  0  0  0  0  0
   1.50075   3.95223   1.97641 C   0  0  0  0  0  0
   0.14137   4.16568   2.68584 C   0  0  0  0  0  0
  -0.60463   2.81347   2.79940 C   0  0  0  0  0  0
  -0.72282   1.99516   1.48849 C   0  0  0  0  0  0
   0.66623   1.87625   0.81335 C   0  0  0  0  0  0
   0.77851   4.21962  -0.71903 Cl  0  0  0  0  0  0
   2.49123   5.45072   1.89559 Cl  0  0  0  0  0  0
  -0.85650   5.46618   1.93868 Cl  0  0  0  0  0  0
  -2.16623   2.95084   3.68290 Cl  0  0  0  0  0  0
  -2.00408   2.60593   0.37954 Cl  0  0  0  0  0  0
   0.63889   0.87097  -0.67833 Cl  0  0  0  0  0  0
   2.45329   2.97172   0.30917 H   0  0  0  0  0  0
   2.08850   3.30822   2.64162 H   0  0  0  0  0  0
   0.34261   4.52696   3.70101 H   0  0  0  0  0  0
   0.00086   2.20043   3.47523 H   0  0  0  0  0  0
  -1.05340   0.98456   1.75391 H   0  0  0  0  0  0
   1.27896   1.27906   1.49618 H   0  0  0  0  0  0
  1  2  1  0  0  0
  1  6  1  0  0  0
  1  7  1  0  0  0
  2  3  1  0  0  0
  2  8  1  0  0  0
  3  4  1  0  0  0
  3  9  1  0  0  0
  4  5  1  0  0  0
  4 10  1  0  0  0
  5  6  1  0  0  0
  5 11  1  0  0  0
  6 12  1  0  0  0
  1 13  1  0  0  0
  2 14  1  0  0  0
  3 15  1  0  0  0
  4 16  1  0  0  0
  5 17  1  0  0  0
  6 18  1  0  0  0
M  END
