CIP:1p 6s 8p; BB:P-93.5.1.4.2.2;
__Jmol-14_05301721583D 1   1.00000     0.00000     0
Jmol version 14.17.2  2017-05-27 15:31 EXTRACT: ({0:28})
 29 29  0  0  0  0              1 V2000
  -4.87010  -0.63033   0.16077 C   0  0  0  0  0  0
  -4.10242  -1.91856   0.17476 C   0  0  0  0  0  0
  -4.16334   0.65312  -0.11793 C   0  0  0  0  0  0
  -2.70233  -1.89490  -0.44832 C   0  0  0  0  0  0
  -2.68019   0.64373   0.18143 C   0  0  0  0  0  0
  -1.91157  -0.56896  -0.36329 C   0  0  0  0  0  0
  -6.16717  -0.61549   0.10882 C   0  0  0  0  0  0
  -7.41432  -0.44260  -0.17791 C   0  0  0  0  0  0
  -7.84613   0.00753  -1.53044 C   0  0  0  0  0  0
  -1.19820  -0.19665  -1.68601 C   0  0  0  0  0  0
   0.16999   0.40557  -1.38240 C   0  0  0  0  0  0
  -4.67807  -2.68969  -0.35102 H   0  0  0  0  0  0
  -4.02906  -2.27065   1.20751 H   0  0  0  0  0  0
  -4.61608   1.45724   0.47777 H   0  0  0  0  0  0
  -4.32553   0.92827  -1.16467 H   0  0  0  0  0  0
  -2.73785  -2.29359  -1.46746 H   0  0  0  0  0  0
  -2.11768  -2.65413   0.07886 H   0  0  0  0  0  0
  -2.54189   0.69200   1.26748 H   0  0  0  0  0  0
  -2.27287   1.57819  -0.22458 H   0  0  0  0  0  0
  -1.11791  -0.76377   0.36808 H   0  0  0  0  0  0
  -8.15868  -0.49534   0.61233 H   0  0  0  0  0  0
  -7.55857  -0.73011  -2.29012 H   0  0  0  0  0  0
  -7.38114   0.96469  -1.78577 H   0  0  0  0  0  0
  -8.92929   0.13454  -1.56960 H   0  0  0  0  0  0
  -1.79581   0.52547  -2.25731 H   0  0  0  0  0  0
  -1.06197  -1.05908  -2.34352 H   0  0  0  0  0  0
   0.86283  -0.38092  -1.05487 H   0  0  0  0  0  0
   0.11658   1.14956  -0.58319 H   0  0  0  0  0  0
   0.60335   0.88696  -2.26233 H   0  0  0  0  0  0
  1  2  1  0  0  0
  1  3  1  0  0  0
  1  7  2  0  0  0
  2  4  1  0  0  0
  3  5  1  0  0  0
  4  6  1  0  0  0
  5  6  1  0  0  0
  6 10  1  0  0  0
  7  8  2  0  0  0
  8  9  1  0  0  0
 10 11  1  0  0  0
  2 12  1  0  0  0
  2 13  1  0  0  0
  3 14  1  0  0  0
  3 15  1  0  0  0
  4 16  1  0  0  0
  4 17  1  0  0  0
  5 18  1  0  0  0
  5 19  1  0  0  0
  6 20  1  0  0  0
  8 21  1  0  0  0
  9 22  1  0  0  0
  9 23  1  0  0  0
  9 24  1  0  0  0
 10 25  1  0  0  0
 10 26  1  0  0  0
 11 27  1  0  0  0
 11 28  1  0  0  0
 11 29  1  0  0  0
M  END
