CIP:1S; BB:P-93.2.4;
__Jmol-14_05301721583D 1   1.00000     0.00000     0
Jmol version 14.17.2  2017-05-27 15:31 EXTRACT: ({0:21})
 22 22  0  0  0  0              1 V2000
  -1.60018  -3.27893   0.76818 P   0  0  0  0  0  0
  -2.50085  -4.13362   1.62019 O   0  0  0  0  0  0
   0.03799  -2.79748   1.25577 C   0  0  0  0  0  0
  -1.36610  -4.07105  -0.87180 C   0  0  0  0  0  0
  -2.36495  -1.89401   0.30422 O   0  0  0  0  0  0
  -1.76226  -1.01208  -0.64936 C   0  0  0  0  0  0
   1.10696  -3.78714   1.27263 C   0  0  0  0  0  0
   0.35900  -1.51089   1.51929 C   0  0  0  0  0  0
   2.38987  -3.38859   1.28564 C   0  0  0  0  0  0
   1.73015  -1.06978   1.41229 C   0  0  0  0  0  0
   2.70755  -1.97180   1.25922 C   0  0  0  0  0  0
  -0.74654  -3.46426  -1.53551 H   0  0  0  0  0  0
  -2.34363  -4.20715  -1.35041 H   0  0  0  0  0  0
  -0.89439  -5.04959  -0.76837 H   0  0  0  0  0  0
  -2.37434  -0.97550  -1.55124 H   0  0  0  0  0  0
  -0.75374  -1.32336  -0.93573 H   0  0  0  0  0  0
  -1.70096  -0.00890  -0.21739 H   0  0  0  0  0  0
   0.84685  -4.84261   1.33260 H   0  0  0  0  0  0
  -0.39648  -0.74074   1.60130 H   0  0  0  0  0  0
   3.20430  -4.10072   1.32827 H   0  0  0  0  0  0
   1.92142  -0.00432   1.31802 H   0  0  0  0  0  0
   3.73705  -1.66942   1.09130 H   0  0  0  0  0  0
  1  2  2  0  0  0
  1  3  1  0  0  0
  1  4  1  0  0  0
  1  5  1  0  0  0
  3  7  1  0  0  0
  3  8  2  0  0  0
  5  6  1  0  0  0
  7  9  2  0  0  0
  8 10  1  0  0  0
  9 11  1  0  0  0
 10 11  2  0  0  0
  4 12  1  0  0  0
  4 13  1  0  0  0
  4 14  1  0  0  0
  6 15  1  0  0  0
  6 16  1  0  0  0
  6 17  1  0  0  0
  7 18  1  0  0  0
  8 19  1  0  0  0
  9 20  1  0  0  0
 10 21  1  0  0  0
 11 22  1  0  0  0
M  END
