CIP:2S; BB:P-92.1.4.2;
__Jmol-14_05301721583D 1   1.00000     0.00000     0
Jmol version 14.17.2  2017-05-27 15:31 EXTRACT: ({0:10})
 11 10  0  0  0  0              1 V2000
   0.76411   0.67318   0.30262 C   0  0  0  0  0  0
   1.40223   1.96407   0.78414 C   0  0  0  0  0  0
   2.87219   1.77649   1.11242 C   0  0  0  0  0  0
  -0.44633   0.52141   0.23011 O   0  0  0  0  0  0
   0.72286   2.45011   1.94784 O   0  0  0  0  0  0
   1.45481  -0.12486  -0.02145 H   0  0  0  0  0  0
   1.30114   2.70723  -0.01536 H   0  0  0  0  0  0
   3.00429   1.05011   1.92313 H   0  0  0  0  0  0
   3.31655   2.71395   1.45085 H   0  0  0  0  0  0
   3.43393   1.41618   0.24130 H   0  0  0  0  0  0
  -0.22959   2.38990   1.75459 H   0  0  0  0  0  0
  1  2  1  0  0  0
  1  4  2  0  0  0
  2  3  1  0  0  0
  2  5  1  0  0  0
  1  6  1  0  0  0
  2  7  1  0  0  0
  3  8  1  0  0  0
  3  9  1  0  0  0
  3 10  1  0  0  0
  5 11  1  0  0  0
M  END
