CIP:1R 2S; BB:P-92.2.1.3;
__Jmol-14_05301721583D 1   1.00000     0.00000     0
Jmol version 14.17.2  2017-05-27 15:31 EXTRACT: ({0:23})
 24 24  0  0  0  0              1 V2000
  -1.16417   1.79467   0.17010 C   0  0  0  0  0  0
  -1.15745   3.36056   0.18500 C   0  0  0  0  0  0
   0.13848   4.09208   0.57327 C   0  0  0  0  0  0
   1.45765   3.34251   0.60442 C   0  0  0  0  0  0
   1.42310   1.83369   0.79350 C   0  0  0  0  0  0
   0.16496   1.06201   0.42924 C   0  0  0  0  0  0
  -2.27024   1.13844   1.01335 C   0  0  0  0  0  0
  -2.30774   3.99360   0.98476 C   0  0  0  0  0  0
  -1.43137   1.53064  -0.85773 H   0  0  0  0  0  0
  -1.34653   3.65001  -0.85837 H   0  0  0  0  0  0
   0.01505   4.58807   1.54217 H   0  0  0  0  0  0
   0.26537   4.93358  -0.12123 H   0  0  0  0  0  0
   2.05372   3.75817   1.42463 H   0  0  0  0  0  0
   2.04039   3.58457  -0.28755 H   0  0  0  0  0  0
   1.66575   1.61674   1.83772 H   0  0  0  0  0  0
   2.25985   1.40801   0.22807 H   0  0  0  0  0  0
   0.38872   0.46171  -0.46120 H   0  0  0  0  0  0
   0.02619   0.30498   1.21233 H   0  0  0  0  0  0
  -2.13052   1.32762   2.08003 H   0  0  0  0  0  0
  -2.27646   0.05072   0.86986 H   0  0  0  0  0  0
  -3.26872   1.48438   0.72383 H   0  0  0  0  0  0
  -2.28839   5.08678   0.90575 H   0  0  0  0  0  0
  -2.23839   3.74619   2.05091 H   0  0  0  0  0  0
  -3.28463   3.67640   0.61937 H   0  0  0  0  0  0
  1  2  1  0  0  0
  1  6  1  0  0  0
  1  7  1  0  0  0
  2  3  1  0  0  0
  2  8  1  0  0  0
  3  4  1  0  0  0
  4  5  1  0  0  0
  5  6  1  0  0  0
  1  9  1  0  0  0
  2 10  1  0  0  0
  3 11  1  0  0  0
  3 12  1  0  0  0
  4 13  1  0  0  0
  4 14  1  0  0  0
  5 15  1  0  0  0
  5 16  1  0  0  0
  6 17  1  0  0  0
  6 18  1  0  0  0
  7 19  1  0  0  0
  7 20  1  0  0  0
  7 21  1  0  0  0
  8 22  1  0  0  0
  8 23  1  0  0  0
  8 24  1  0  0  0
M  END
