CIP:1R 3R 5S 6S; BB:P-93.5.2.2.1;
__Jmol-14_05301721583D 1   1.00000     0.00000     0
Jmol version 14.17.2  2017-05-27 15:31 EXTRACT: ({0:22})
 23 24  0  0  0  0              1 V2000
   2.12917   1.42651  -2.08398 C   0  0  0  0  0  0
   2.11214  -0.04946  -1.53004 C   0  0  0  0  0  0
   1.96700   2.05544  -0.76125 C   0  0  0  0  0  0
   3.33993   2.28662  -2.47474 C   0  0  0  0  0  0
   3.46681   1.34286  -0.51742 C   0  0  0  0  0  0
   3.49156  -0.14597  -1.07725 C   0  0  0  0  0  0
   4.25371   2.16911  -1.46223 C   0  0  0  0  0  0
   2.04271   3.11381  -0.70388 H   0  0  0  0  0  0
   0.39913   1.79275  -0.56544 C   0  0  0  0  0  0
   4.11619  -0.73243  -2.40010 C   0  0  0  0  0  0
   3.76589  -1.44796   0.37502 Br  0  0  0  0  0  0
   3.85167   1.48132   0.53451 H   0  0  0  0  0  0
   1.30122   1.61509  -2.79028 H   0  0  0  0  0  0
   1.75843  -0.82066  -2.23728 H   0  0  0  0  0  0
   1.48703  -0.26943  -0.61304 H   0  0  0  0  0  0
   3.39037   3.04610  -3.22340 H   0  0  0  0  0  0
   5.17795   2.70611  -1.32020 H   0  0  0  0  0  0
  -0.16923   2.57243  -1.06155 H   0  0  0  0  0  0
   0.08029   1.75519   0.48808 H   0  0  0  0  0  0
  -0.05355   0.85688  -1.01742 H   0  0  0  0  0  0
   3.73446  -1.73908  -2.56928 H   0  0  0  0  0  0
   5.17660  -0.79365  -2.36223 H   0  0  0  0  0  0
   3.83345  -0.15639  -3.32369 H   0  0  0  0  0  0
  1  2  1  0  0  0
  1  3  1  0  0  0
  1  4  1  0  0  0
  1 13  1  0  0  0
  2  6  1  0  0  0
  3  5  1  0  0  0
  3  8  1  0  0  0
  3  9  1  0  0  0
  4  7  2  0  0  0
  5  6  1  0  0  0
  5  7  1  0  0  0
  5 12  1  0  0  0
  6 10  1  0  0  0
  6 11  1  0  0  0
  2 14  1  0  0  0
  2 15  1  0  0  0
  4 16  1  0  0  0
  7 17  1  0  0  0
  9 18  1  0  0  0
  9 19  1  0  0  0
  9 20  1  0  0  0
 10 21  1  0  0  0
 10 22  1  0  0  0
 10 23  1  0  0  0
M  END
