CIP:27P 28P 44R; BB:P-93.5.2.3;
__Jmol-14_05301721583D 1   1.00000     0.00000     0
Jmol version 14.17.2  2017-05-27 15:31 EXTRACT: ({0:128})
129130  0  0  0  0              1 V2000
  12.61608  -1.06485   0.40793 C   0  0  0  0  0  0
  13.84269  -0.18273   0.33842 C   0  0  0  0  0  0
  15.05271  -1.08456   0.48997 C   0  0  0  0  0  0
  16.28614  -0.22543   0.41684 C   0  0  0  0  0  0
  17.52160  -1.07531   0.57062 C   0  0  0  0  0  0
  18.71411  -0.12702   0.44869 C   0  0  0  0  0  0
  20.07954  -0.77924   0.51349 C   0  0  0  0  0  0
  20.05694  -2.26233   0.75435 C   0  0  0  0  0  0
  21.49164  -2.78187   0.86828 C   0  0  0  0  0  0
  21.66318  -4.28563   1.04692 C   0  0  0  0  0  0
  20.33262  -4.95443   1.10753 C   0  0  0  0  0  0
  20.39144  -6.44961   1.26156 C   0  0  0  0  0  0
  18.98863  -7.00501   1.30857 C   0  0  0  0  0  0
   1.28524  -6.56148   0.85378 C   0  0  0  0  0  0
  -0.05309  -5.88015   0.67537 C   0  0  0  0  0  0
   0.10881  -4.38550   0.53200 C   0  0  0  0  0  0
  -1.18004  -3.63023   0.43794 C   0  0  0  0  0  0
  -0.93613  -2.13974   0.20552 C   0  0  0  0  0  0
   0.52515  -1.69385   0.22096 C   0  0  0  0  0  0
   0.59327  -0.20103   0.03139 C   0  0  0  0  0  0
   1.99977   0.37768   0.03160 C   0  0  0  0  0  0
   3.13891  -0.61420   0.14415 C   0  0  0  0  0  0
   4.41658   0.18506   0.04227 C   0  0  0  0  0  0
   5.56024  -0.76264   0.23308 C   0  0  0  0  0  0
   6.94653  -0.11639   0.18281 C   0  0  0  0  0  0
   7.83327  -1.33302   0.12886 C   0  0  0  0  0  0
   9.14527  -1.54522   0.78069 C   0  0  0  0  0  0
  11.35341  -0.28635   0.30427 C   0  0  0  0  0  0
  10.21353  -0.84130   0.52057 C   0  0  0  0  0  0
  17.88833  -5.96152   1.15570 C   0  0  0  0  0  0
   2.45637  -5.61869   0.72742 C   0  0  0  0  0  0
  16.61616  -6.70357   1.22421 C   0  0  0  0  0  0
  15.51013  -5.72839   1.10405 C   0  0  0  0  0  0
  14.25180  -6.55664   1.15054 C   0  0  0  0  0  0
  13.19654  -5.53403   1.16990 C   0  0  0  0  0  0
  11.84118  -5.92428   0.63960 C   0  0  0  0  0  0
  11.40919  -4.54542   0.17826 C   0  0  0  0  0  0
  10.09652  -4.37468  -0.48122 C   0  0  0  0  0  0
   3.70335  -6.41978   0.85649 C   0  0  0  0  0  0
   4.76899  -5.40499   0.75685 C   0  0  0  0  0  0
   6.07732  -6.07583   0.94155 C   0  0  0  0  0  0
   6.97704  -4.95234   1.28125 C   0  0  0  0  0  0
   7.72305  -4.47314   0.06423 C   0  0  0  0  0  0
   9.08954  -4.18434   0.61502 C   0  0  0  0  0  0
   9.21642  -2.87690   1.49593 C   0  0  0  0  0  0
  12.62428  -1.62006   1.34964 H   0  0  0  0  0  0
  12.65437  -1.79333  -0.40309 H   0  0  0  0  0  0
  13.82558   0.57088   1.12833 H   0  0  0  0  0  0
  13.87960   0.34217  -0.61833 H   0  0  0  0  0  0
  15.07306  -1.84286  -0.29544 H   0  0  0  0  0  0
  15.01840  -1.61377   1.45384 H   0  0  0  0  0  0
  16.25691   0.53112   1.19514 H   0  0  0  0  0  0
  16.31097   0.28493  -0.54384 H   0  0  0  0  0  0
  17.53871  -1.84604  -0.19909 H   0  0  0  0  0  0
  17.50789  -1.56139   1.55004 H   0  0  0  0  0  0
  18.65411   0.62672   1.23223 H   0  0  0  0  0  0
  18.64804   0.41711  -0.49476 H   0  0  0  0  0  0
  20.65402  -0.29782   1.31697 H   0  0  0  0  0  0
  20.62003  -0.56289  -0.40491 H   0  0  0  0  0  0
  19.53300  -2.73890  -0.09058 H   0  0  0  0  0  0
  19.51146  -2.47403   1.67362 H   0  0  0  0  0  0
  21.96740  -2.28328   1.71633 H   0  0  0  0  0  0
  22.05068  -2.48145  -0.02270 H   0  0  0  0  0  0
  22.21543  -4.49274   1.97562 H   0  0  0  0  0  0
  22.24209  -4.69861   0.22698 H   0  0  0  0  0  0
  19.81550  -4.73681   0.15533 H   0  0  0  0  0  0
  19.79432  -4.53651   1.95665 H   0  0  0  0  0  0
  20.92470  -6.70938   2.18803 H   0  0  0  0  0  0
  20.93906  -6.89257   0.43848 H   0  0  0  0  0  0
  18.85162  -7.53771   2.24754 H   0  0  0  0  0  0
  18.88454  -7.75745   0.51129 H   0  0  0  0  0  0
   1.39029  -7.36303   0.11645 H   0  0  0  0  0  0
   1.32054  -7.03753   1.84376 H   0  0  0  0  0  0
  -0.69683  -6.11296   1.51738 H   0  0  0  0  0  0
  -0.54079  -6.27942  -0.22518 H   0  0  0  0  0  0
   0.67927  -4.19168  -0.37221 H   0  0  0  0  0  0
   0.64255  -4.00169   1.42179 H   0  0  0  0  0  0
  -1.74415  -3.77547   1.35224 H   0  0  0  0  0  0
  -1.78562  -4.03656  -0.38610 H   0  0  0  0  0  0
  -1.48705  -1.58136   0.97679 H   0  0  0  0  0  0
  -1.37571  -1.86268  -0.74480 H   0  0  0  0  0  0
   1.07203  -2.17943  -0.60394 H   0  0  0  0  0  0
   1.00080  -1.95778   1.16644 H   0  0  0  0  0  0
   0.01474   0.29423   0.82575 H   0  0  0  0  0  0
   0.11558   0.06391  -0.90339 H   0  0  0  0  0  0
   2.07046   1.09661   0.85317 H   0  0  0  0  0  0
   2.11999   0.95224  -0.88423 H   0  0  0  0  0  0
   3.10416  -1.36309  -0.65114 H   0  0  0  0  0  0
   3.09853  -1.14988   1.11063 H   0  0  0  0  0  0
   4.45399   0.95719   0.81218 H   0  0  0  0  0  0
   4.49228   0.66984  -0.93987 H   0  0  0  0  0  0
   5.47804  -1.52889  -0.55108 H   0  0  0  0  0  0
   5.42277  -1.26418   1.18762 H   0  0  0  0  0  0
   7.11490   0.51802   1.07126 H   0  0  0  0  0  0
   7.07292   0.50151  -0.70168 H   0  0  0  0  0  0
   7.90464  -1.65993  -0.90715 H   0  0  0  0  0  0
   7.23816  -2.06291   0.67142 H   0  0  0  0  0  0
  11.39023   0.75072   0.02564 H   0  0  0  0  0  0
  17.93470  -5.44264   0.19052 H   0  0  0  0  0  0
  17.90160  -5.21257   1.96200 H   0  0  0  0  0  0
   2.45035  -4.85693   1.51998 H   0  0  0  0  0  0
   2.47721  -5.10910  -0.24069 H   0  0  0  0  0  0
  16.53994  -7.23156   2.18595 H   0  0  0  0  0  0
  16.56402  -7.43213   0.41932 H   0  0  0  0  0  0
  15.59450  -5.17917   0.14449 H   0  0  0  0  0  0
  15.54535  -4.98676   1.90762 H   0  0  0  0  0  0
  14.20350  -7.17315   2.06534 H   0  0  0  0  0  0
  14.19267  -7.21019   0.28173 H   0  0  0  0  0  0
  13.58116  -4.73018   0.52874 H   0  0  0  0  0  0
  13.09733  -5.09919   2.17509 H   0  0  0  0  0  0
  11.23353  -6.36358   1.43762 H   0  0  0  0  0  0
  11.89560  -6.64343  -0.19407 H   0  0  0  0  0  0
  12.12273  -4.15651  -0.55018 H   0  0  0  0  0  0
  11.47668  -3.90889   1.06745 H   0  0  0  0  0  0
  10.11279  -3.49701  -1.13870 H   0  0  0  0  0  0
   9.88434  -5.25809  -1.11601 H   0  0  0  0  0  0
   3.78159  -7.16711   0.05235 H   0  0  0  0  0  0
   3.72788  -6.92420   1.82226 H   0  0  0  0  0  0
   4.59740  -4.65813   1.53672 H   0  0  0  0  0  0
   4.74868  -4.87068  -0.20575 H   0  0  0  0  0  0
   6.37339  -6.65349   0.05905 H   0  0  0  0  0  0
   6.04654  -6.78537   1.78140 H   0  0  0  0  0  0
   7.61660  -5.31419   2.09246 H   0  0  0  0  0  0
   6.46349  -4.07741   1.71581 H   0  0  0  0  0  0
   7.73761  -5.20156  -0.76198 H   0  0  0  0  0  0
   7.22444  -3.63276  -0.41410 H   0  0  0  0  0  0
   8.42377  -2.89125   2.26161 H   0  0  0  0  0  0
  10.11197  -2.90898   2.10232 H   0  0  0  0  0  0
   9.32738  -5.00851   1.30534 H   0  0  0  0  0  0
  1  2  1  0  0  0
  1 28  1  0  0  0
  2  3  1  0  0  0
  3  4  1  0  0  0
  4  5  1  0  0  0
  5  6  1  0  0  0
  6  7  1  0  0  0
  7  8  1  0  0  0
  8  9  1  0  0  0
  9 10  1  0  0  0
 10 11  1  0  0  0
 11 12  1  0  0  0
 12 13  1  0  0  0
 13 30  1  0  0  0
 14 15  1  0  0  0
 14 31  1  0  0  0
 15 16  1  0  0  0
 16 17  1  0  0  0
 17 18  1  0  0  0
 18 19  1  0  0  0
 19 20  1  0  0  0
 20 21  1  0  0  0
 21 22  1  0  0  0
 22 23  1  0  0  0
 23 24  1  0  0  0
 24 25  1  0  0  0
 25 26  1  0  0  0
 26 27  1  0  0  0
 27 29  2  0  0  0
 27 45  1  0  0  0
 28 29  2  0  0  0
 30 32  1  0  0  0
 31 39  1  0  0  0
 32 33  1  0  0  0
 33 34  1  0  0  0
 34 35  1  0  0  0
 35 36  1  0  0  0
 36 37  1  0  0  0
 37 38  1  0  0  0
 38 44  1  0  0  0
 39 40  1  0  0  0
 40 41  1  0  0  0
 41 42  1  0  0  0
 42 43  1  0  0  0
 43 44  1  0  0  0
 44 45  1  0  0  0
 46  1  1  0  0  0
 47  1  1  0  0  0
 48  2  1  0  0  0
 49  2  1  0  0  0
 50  3  1  0  0  0
 51  3  1  0  0  0
 52  4  1  0  0  0
 53  4  1  0  0  0
 54  5  1  0  0  0
 55  5  1  0  0  0
 56  6  1  0  0  0
 57  6  1  0  0  0
 58  7  1  0  0  0
 59  7  1  0  0  0
 60  8  1  0  0  0
 61  8  1  0  0  0
 62  9  1  0  0  0
 63  9  1  0  0  0
 64 10  1  0  0  0
 65 10  1  0  0  0
 66 11  1  0  0  0
 67 11  1  0  0  0
 68 12  1  0  0  0
 69 12  1  0  0  0
 70 13  1  0  0  0
 71 13  1  0  0  0
 72 14  1  0  0  0
 73 14  1  0  0  0
 74 15  1  0  0  0
 75 15  1  0  0  0
 76 16  1  0  0  0
 77 16  1  0  0  0
 78 17  1  0  0  0
 79 17  1  0  0  0
 80 18  1  0  0  0
 81 18  1  0  0  0
 82 19  1  0  0  0
 83 19  1  0  0  0
 84 20  1  0  0  0
 85 20  1  0  0  0
 86 21  1  0  0  0
 87 21  1  0  0  0
 88 22  1  0  0  0
 89 22  1  0  0  0
 90 23  1  0  0  0
 91 23  1  0  0  0
 92 24  1  0  0  0
 93 24  1  0  0  0
 94 25  1  0  0  0
 95 25  1  0  0  0
 96 26  1  0  0  0
 97 26  1  0  0  0
 98 28  1  0  0  0
 99 30  1  0  0  0
100 30  1  0  0  0
101 31  1  0  0  0
102 31  1  0  0  0
103 32  1  0  0  0
104 32  1  0  0  0
105 33  1  0  0  0
106 33  1  0  0  0
107 34  1  0  0  0
108 34  1  0  0  0
109 35  1  0  0  0
110 35  1  0  0  0
111 36  1  0  0  0
112 36  1  0  0  0
113 37  1  0  0  0
114 37  1  0  0  0
115 38  1  0  0  0
116 38  1  0  0  0
117 39  1  0  0  0
118 39  1  0  0  0
119 40  1  0  0  0
120 40  1  0  0  0
121 41  1  0  0  0
122 41  1  0  0  0
123 42  1  0  0  0
124 42  1  0  0  0
125 43  1  0  0  0
126 43  1  0  0  0
127 45  1  0  0  0
128 45  1  0  0  0
129 44  1  0  0  0
M  END
