CIP:EEEZEZ;BB:P-16.2.4.4, P-16.5.1.7, P-93.4.2.1.1
__Jmol-14_05291700433D 1   1.00000     0.00000     0
Jmol version 14.17.2  2017-05-27 15:31 EXTRACT: ({0:23})
 24 23  0  0  0  0              1 V2000
  -0.80622   4.63289  -0.05414 C   0  0  0  0  0  0
  -1.29179   5.99944   0.07577 C   0  0  0  0  0  0
  -1.65455   3.60169   0.18438 C   0  0  0  0  0  0
   0.62339   4.27330  -0.13765 C   0  0  0  0  0  0
  -3.31422   3.49958  -0.33025 S   0  0  0  0  0  0
  -3.67019   2.12270  -0.10747 O   0  0  0  0  0  0
  -3.49424   4.13410  -1.61406 O   0  0  0  0  0  0
  -4.25525   4.24501   0.72762 O   0  0  0  0  0  0
  -0.68312   7.07376  -0.47214 C   0  0  0  0  0  0
  -1.08553   8.44293  -0.06012 C   0  0  0  0  0  0
   1.11123   3.19666  -0.79876 C   0  0  0  0  0  0
   2.55085   2.81317  -0.82287 C   0  0  0  0  0  0
  -2.20327   8.74097   0.33420 O   0  0  0  0  0  0
  -0.05720   9.32389  -0.12769 O   0  0  0  0  0  0
   1.74961   5.30554   0.70253 Cl  0  0  0  0  0  0
  -2.11691   6.16422   0.76125 H   0  0  0  0  0  0
  -1.25287   2.61115   0.32525 H   0  0  0  0  0  0
  -4.97892   3.58937   0.87475 H   0  0  0  0  0  0
   0.14482   6.98147  -1.15651 H   0  0  0  0  0  0
   0.44908   2.52546  -1.34529 H   0  0  0  0  0  0
   2.95628   2.71026   0.18722 H   0  0  0  0  0  0
   3.14087   3.55981  -1.37412 H   0  0  0  0  0  0
   2.69136   1.84891  -1.32233 H   0  0  0  0  0  0
   0.81077   8.92849  -0.30042 H   0  0  0  0  0  0
  1  2  1  0  0  0
  1  3  2  0  0  0
  1  4  1  0  0  0
  2  9  2  0  0  0
  3  5  1  0  0  0
  4 11  2  0  0  0
  4 15  1  0  0  0
  5  6  2  0  0  0
  5  7  2  0  0  0
  5  8  1  0  0  0
  9 10  1  0  0  0
 10 13  2  0  0  0
 10 14  1  0  0  0
 11 12  1  0  0  0
  2 16  1  0  0  0
  3 17  1  0  0  0
  8 18  1  0  0  0
  9 19  1  0  0  0
 11 20  1  0  0  0
 12 21  1  0  0  0
 12 22  1  0  0  0
 12 23  1  0  0  0
 14 24  1  0  0  0
M  END
