CIP:PP;BB:P-16.2.4.4, P-16.5.1.7, P-93.4.2.1.1
__Jmol-14_05291700473D 1   1.00000     0.00000     0
Jmol version 14.17.2  2017-05-27 15:31 EXTRACT: ({0:38})
 39 41  0  0  0  0              1 V2000
   4.04012  -3.28443   1.73425 C   0  0  0  0  0  0
   4.64113  -4.53706   2.25511 C   0  0  0  0  0  0
   4.83607  -2.60106   0.85126 C   0  0  0  0  0  0
   5.78734  -5.06035   1.77926 C   0  0  0  0  0  0
   6.04982  -3.21512   0.28992 C   0  0  0  0  0  0
   6.51981  -4.39140   0.72557 C   0  0  0  0  0  0
   2.68301  -2.74822   2.13738 C   0  0  0  0  0  0
   1.51652  -3.23101   1.59085 C   0  0  0  0  0  0
   2.50680  -1.67612   3.16795 C   0  0  0  0  0  0
   0.25780  -2.46272   1.72700 C   0  0  0  0  0  0
   1.35168  -0.99552   3.27189 C   0  0  0  0  0  0
   0.21680  -1.34488   2.47529 C   0  0  0  0  0  0
   3.50236  -1.49894   4.28661 C   0  0  0  0  0  0
   4.07798  -5.09964   3.37758 O   0  0  0  0  0  0
   4.66624  -1.18355   0.36771 C   0  0  0  0  0  0
   1.39180  -4.50624   0.86800 C   0  0  0  0  0  0
   0.22712  -4.87062   0.29938 C   0  0  0  0  0  0
  -0.93733  -2.85611   1.00657 C   0  0  0  0  0  0
  -0.94183  -4.01081   0.31602 C   0  0  0  0  0  0
   4.03605  -0.18310   4.27858 O   0  0  0  0  0  0
   7.79294  -5.01520   0.21695 C   0  0  0  0  0  0
   6.21206  -5.94674   2.22984 H   0  0  0  0  0  0
   6.58045  -2.68221  -0.49812 H   0  0  0  0  0  0
   1.19710  -0.24797   4.04629 H   0  0  0  0  0  0
  -0.67869  -0.74150   2.57397 H   0  0  0  0  0  0
   4.31579  -2.22570   4.27848 H   0  0  0  0  0  0
   2.98179  -1.64615   5.24042 H   0  0  0  0  0  0
   3.72509  -4.35937   3.90018 H   0  0  0  0  0  0
   4.34214  -1.14883  -0.67767 H   0  0  0  0  0  0
   5.62666  -0.65393   0.42810 H   0  0  0  0  0  0
   3.97988  -0.59171   0.97377 H   0  0  0  0  0  0
   2.20432  -5.22319   0.89688 H   0  0  0  0  0  0
   0.12252  -5.84615  -0.16881 H   0  0  0  0  0  0
  -1.81864  -2.22481   1.01901 H   0  0  0  0  0  0
  -1.82342  -4.32611  -0.22952 H   0  0  0  0  0  0
   4.20717   0.05200   5.20881 H   0  0  0  0  0  0
   8.61926  -4.79864   0.89952 H   0  0  0  0  0  0
   8.06753  -4.62797  -0.77333 H   0  0  0  0  0  0
   7.70375  -6.10044   0.12528 H   0  0  0  0  0  0
  1  2  1  0  0  0
  1  3  2  0  0  0
  1  7  1  0  0  0
  2  4  2  0  0  0
  2 14  1  0  0  0
  3  5  1  0  0  0
  3 15  1  0  0  0
  4  6  1  0  0  0
  5  6  2  0  0  0
  6 21  1  0  0  0
  7  8  2  0  0  0
  7  9  1  0  0  0
  8 16  1  0  0  0
  8 10  1  0  0  0
  9 11  2  0  0  0
  9 13  1  0  0  0
 10 12  2  0  0  0
 10 18  1  0  0  0
 11 12  1  0  0  0
 13 20  1  0  0  0
 16 17  2  0  0  0
 17 19  1  0  0  0
 18 19  2  0  0  0
  4 22  1  0  0  0
  5 23  1  0  0  0
 11 24  1  0  0  0
 12 25  1  0  0  0
 13 26  1  0  0  0
 13 27  1  0  0  0
 14 28  1  0  0  0
 15 29  1  0  0  0
 15 30  1  0  0  0
 15 31  1  0  0  0
 16 32  1  0  0  0
 17 33  1  0  0  0
 18 34  1  0  0  0
 19 35  1  0  0  0
 20 36  1  0  0  0
 21 37  1  0  0  0
 21 38  1  0  0  0
 21 39  1  0  0  0
M  END
