CIP:SS;BB:P-16.2.4.4, P-16.5.1.7, P-93.4.2.1.1
__Jmol-14_05291700443D 1   1.00000     0.00000     0
Jmol version 14.17.2  2017-05-27 15:31 EXTRACT: ({0:14})
 15 14  0  0  0  0              1 V2000
  -0.46866   1.50799  -0.19301 C   0  0  0  0  0  0
   0.63170   2.44792  -0.67306 C   0  0  0  0  0  0
   2.03738   1.82317  -0.50757 C   0  0  0  0  0  0
   3.13890   2.87241  -0.43372 C   0  0  0  0  0  0
   0.38253   2.85416  -2.02622 O   0  0  0  0  0  0
   2.46276   0.54697  -1.96740 Br  0  0  0  0  0  0
  -0.48797   0.57691  -0.76866 H   0  0  0  0  0  0
  -1.45039   1.96900  -0.30925 H   0  0  0  0  0  0
  -0.33273   1.25624   0.86556 H   0  0  0  0  0  0
   0.57665   3.35742  -0.06181 H   0  0  0  0  0  0
   2.08265   1.21703   0.40442 H   0  0  0  0  0  0
   3.08054   3.58670  -1.26229 H   0  0  0  0  0  0
   4.13253   2.42205  -0.44680 H   0  0  0  0  0  0
   3.04968   3.43755   0.50151 H   0  0  0  0  0  0
  -0.44536   3.35968  -2.04938 H   0  0  0  0  0  0
  1  2  1  0  0  0
  2  3  1  0  0  0
  2  5  1  0  0  0
  3  4  1  0  0  0
  3  6  1  0  0  0
  1  7  1  0  0  0
  1  8  1  0  0  0
  1  9  1  0  0  0
  2 10  1  0  0  0
  3 11  1  0  0  0
  4 12  1  0  0  0
  4 13  1  0  0  0
  4 14  1  0  0  0
  5 15  1  0  0  0
M  END
