CIP:S;BB:P-16.2.4.4, P-16.5.1.7, P-93.4.2.1.1
__Jmol-14_05291700443D 1   1.00000     0.00000     0
Jmol version 14.17.2  2017-05-27 15:31 EXTRACT: ({0:68})
 69 68  0  0  0  0              1 V2000
   2.19979  -0.73741  -0.12121 S   0  0  0  0  0  0
   1.09855   0.09844  -0.54105 O   1  0  0  0  0  0
   2.27798  -2.02062  -0.80642 O   2  0  0  0  0  0
   2.35060  -0.83209   1.31861 O   0  5  0  0  0  0
   3.53887   0.07333  -0.64773 O   0  0  0  0  0  0
   4.82326  -0.43903  -0.45964 C   0  0  0  0  0  0
   5.12020  -1.45008   0.45019 C   0  0  0  0  0  0
   5.86564   0.14143  -1.18941 C   0  0  0  0  0  0
   6.41699  -1.85514   0.63344 C   0  0  0  0  0  0
   7.17869  -0.30854  -1.02282 C   0  0  0  0  0  0
   7.46242  -1.32071  -0.11027 C   0  0  0  0  0  0
   4.40702  -6.19954   0.30996 N   0  3  0  0  0  0
   5.35608  -7.06121  -0.66515 C   0  0  0  0  0  0
   6.68012  -6.58892  -1.28050 C   0  0  0  0  0  0
   7.85441  -7.55887  -0.94670 C   0  0  0  0  0  0
   9.19791  -7.04079  -1.42795 C   0  0  0  0  0  0
   3.30769  -7.33562   0.47108 C   0  0  0  0  0  0
   2.26502  -7.24374  -0.77650 C   0  0  0  0  0  0
   0.91756  -7.92445  -0.59725 C   0  0  0  0  0  0
  -0.21522  -7.14758  -1.28291 C   0  0  0  0  0  0
   5.41963  -5.41296   1.27918 C   0  0  0  0  0  0
   6.80234  -5.84876   1.85715 C   0  0  0  0  0  0
   7.93937  -4.82903   1.48022 C   0  0  0  0  0  0
   9.36015  -5.09119   1.94488 C   0  0  0  0  0  0
   3.33603  -4.88822   0.12578 C   0  0  0  0  0  0
   2.09825  -4.95035   1.16862 C   0  0  0  0  0  0
   0.86656  -4.07153   0.93801 C   0  0  0  0  0  0
  -0.37308  -4.58509   1.66710 C   0  0  0  0  0  0
   4.35591  -1.90782   1.06831 H   0  0  0  0  0  0
   5.64592   0.94635  -1.87997 H   0  0  0  0  0  0
   6.57475  -2.56599   1.41476 H   0  0  0  0  0  0
   7.98652   0.14838  -1.58820 H   0  0  0  0  0  0
   8.47916  -1.66257   0.04663 H   0  0  0  0  0  0
   4.76572  -7.52986  -1.45204 H   0  0  0  0  0  0
   5.65080  -7.89784  -0.01937 H   0  0  0  0  0  0
   6.90463  -5.55672  -1.05464 H   0  0  0  0  0  0
   6.55743  -6.61767  -2.36594 H   0  0  0  0  0  0
   7.66839  -8.54258  -1.39480 H   0  0  0  0  0  0
   7.94730  -7.75542   0.11808 H   0  0  0  0  0  0
   9.46622  -6.11747  -0.91686 H   0  0  0  0  0  0
   9.15910  -6.83612  -2.50112 H   0  0  0  0  0  0
   9.98580  -7.77423  -1.24689 H   0  0  0  0  0  0
   2.88638  -7.28209   1.47324 H   0  0  0  0  0  0
   3.75505  -8.33055   0.45660 H   0  0  0  0  0  0
   2.71824  -7.57878  -1.71680 H   0  0  0  0  0  0
   1.99264  -6.23258  -1.04318 H   0  0  0  0  0  0
   0.68141  -8.00876   0.46339 H   0  0  0  0  0  0
   0.96805  -8.93356  -1.00594 H   0  0  0  0  0  0
  -0.02734  -7.00516  -2.35385 H   0  0  0  0  0  0
  -0.35274  -6.15516  -0.84546 H   0  0  0  0  0  0
  -1.16338  -7.68381  -1.17766 H   0  0  0  0  0  0
   4.86671  -4.84273   2.02998 H   0  0  0  0  0  0
   5.74316  -4.67400   0.55738 H   0  0  0  0  0  0
   7.05663  -6.87461   1.62881 H   0  0  0  0  0  0
   6.72130  -5.80932   2.94546 H   0  0  0  0  0  0
   7.68331  -3.86498   1.92723 H   0  0  0  0  0  0
   7.99066  -4.67697   0.39998 H   0  0  0  0  0  0
   9.78832  -5.97418   1.46633 H   0  0  0  0  0  0
   9.40932  -5.20631   3.02626 H   0  0  0  0  0  0
   9.99895  -4.24318   1.67562 H   0  0  0  0  0  0
   3.09245  -4.74482  -0.93132 H   0  0  0  0  0  0
   3.83637  -3.97522   0.38675 H   0  0  0  0  0  0
   2.48126  -4.75162   2.18039 H   0  0  0  0  0  0
   1.65402  -5.92975   1.24453 H   0  0  0  0  0  0
   0.63822  -4.01379  -0.12570 H   0  0  0  0  0  0
   1.03375  -3.07656   1.32724 H   0  0  0  0  0  0
  -0.19927  -4.63128   2.75011 H   0  0  0  0  0  0
  -0.65949  -5.58099   1.33178 H   0  0  0  0  0  0
  -1.21600  -3.91497   1.49109 H   0  0  0  0  0  0
  1  2  2  0  0  0
  1  3  2  0  0  0
  1  4  1  0  0  0
  1  5  1  0  0  0
  5  6  1  0  0  0
  6  7  1  0  0  0
  6  8  2  0  0  0
  7  9  2  0  0  0
  8 10  1  0  0  0
  9 11  1  0  0  0
 10 11  2  0  0  0
 12 13  1  0  0  0
 12 21  1  0  0  0
 12 17  1  0  0  0
 12 25  1  0  0  0
 13 14  1  0  0  0
 14 15  1  0  0  0
 15 16  1  0  0  0
 17 18  1  0  0  0
 18 19  1  0  0  0
 19 20  1  0  0  0
 21 22  1  0  0  0
 22 23  1  0  0  0
 23 24  1  0  0  0
 25 26  1  0  0  0
 26 27  1  0  0  0
 27 28  1  0  0  0
  7 29  1  0  0  0
  8 30  1  0  0  0
  9 31  1  0  0  0
 10 32  1  0  0  0
 11 33  1  0  0  0
 13 34  1  0  0  0
 13 35  1  0  0  0
 14 36  1  0  0  0
 14 37  1  0  0  0
 15 38  1  0  0  0
 15 39  1  0  0  0
 16 40  1  0  0  0
 16 41  1  0  0  0
 16 42  1  0  0  0
 17 43  1  0  0  0
 17 44  1  0  0  0
 18 45  1  0  0  0
 18 46  1  0  0  0
 19 47  1  0  0  0
 19 48  1  0  0  0
 20 49  1  0  0  0
 20 50  1  0  0  0
 20 51  1  0  0  0
 21 52  1  0  0  0
 21 53  1  0  0  0
 22 54  1  0  0  0
 22 55  1  0  0  0
 23 56  1  0  0  0
 23 57  1  0  0  0
 24 58  1  0  0  0
 24 59  1  0  0  0
 24 60  1  0  0  0
 25 61  1  0  0  0
 25 62  1  0  0  0
 26 63  1  0  0  0
 26 64  1  0  0  0
 27 65  1  0  0  0
 27 66  1  0  0  0
 28 67  1  0  0  0
 28 68  1  0  0  0
 28 69  1  0  0  0
M  END
