CIP:RrSsS;BB:P-16.2.4.4, P-16.5.1.7, P-93.4.2.1.1
__Jmol-14_05291700473D 1   1.00000     0.00000     0
Jmol version 14.17.2  2017-05-27 15:31 EXTRACT: ({0:49})
 50 51  0  0  0  0              1 V2000
  -4.30951  -0.24399   0.78991 C   0  0  0  0  0  0
  -5.68552  -0.79226   0.27337 C   0  0  0  0  0  0
  -6.75770  -0.66422   1.39198 C   0  0  0  0  0  0
  -6.18306   0.05172  -0.79366 O   0  0  0  0  0  0
  -3.06387  -1.17253   0.68049 C   0  0  0  0  0  0
  -3.51124  -2.63735   0.81125 C   0  0  0  0  0  0
  -2.34522  -3.61503   0.78964 C   0  0  0  0  0  0
  -1.45474  -3.46437  -0.45248 C   0  0  0  0  0  0
  -1.10832  -1.99366  -0.74589 C   0  0  0  0  0  0
  -2.30910  -1.04158  -0.66154 C   0  0  0  0  0  0
  -0.18379  -4.30308  -0.28104 C   0  0  0  0  0  0
  -7.79736  -1.81067   1.58847 C   0  0  0  0  0  0
  -7.04752  -3.15891   1.60877 C   0  0  0  0  0  0
  -7.93958  -4.39534   1.49099 C   0  0  0  0  0  0
  -8.86528  -4.34828   0.27179 C   0  0  0  0  0  0
  -9.68408  -3.05076   0.29368 C   0  0  0  0  0  0
  -8.83895  -1.78156   0.44273 C   0  0  0  0  0  0
  -8.09961  -4.54822  -1.04288 C   0  0  0  0  0  0
  -4.38999   0.03249   1.84696 H   0  0  0  0  0  0
  -4.10572   0.69429   0.26697 H   0  0  0  0  0  0
  -7.30442   0.26902   1.20688 H   0  0  0  0  0  0
  -6.27263  -0.50002   2.35461 H   0  0  0  0  0  0
  -5.60659   0.09284  -1.57999 H   0  0  0  0  0  0
  -2.37091  -0.94495   1.50119 H   0  0  0  0  0  0
  -4.20711  -2.89041  -0.00233 H   0  0  0  0  0  0
  -4.06578  -2.78027   1.74561 H   0  0  0  0  0  0
  -2.72782  -4.63800   0.84714 H   0  0  0  0  0  0
  -1.74439  -3.46022   1.69468 H   0  0  0  0  0  0
  -2.00884  -3.86283  -1.31392 H   0  0  0  0  0  0
  -0.65531  -1.92036  -1.74279 H   0  0  0  0  0  0
  -0.34040  -1.64907  -0.04294 H   0  0  0  0  0  0
  -1.96919  -0.01371  -0.81133 H   0  0  0  0  0  0
  -2.98908  -1.26350  -1.49608 H   0  0  0  0  0  0
   0.42622  -3.93665   0.55450 H   0  0  0  0  0  0
   0.43838  -4.27175  -1.18244 H   0  0  0  0  0  0
  -0.42326  -5.35028  -0.07848 H   0  0  0  0  0  0
  -8.32068  -1.69478   2.54704 H   0  0  0  0  0  0
  -6.46457  -3.23560   2.52907 H   0  0  0  0  0  0
  -6.31691  -3.18668   0.79080 H   0  0  0  0  0  0
  -8.54398  -4.48251   2.39723 H   0  0  0  0  0  0
  -7.31238  -5.29081   1.45225 H   0  0  0  0  0  0
  -9.56541  -5.19140   0.35266 H   0  0  0  0  0  0
 -10.39215  -3.09636   1.12466 H   0  0  0  0  0  0
 -10.29160  -2.97681  -0.61744 H   0  0  0  0  0  0
  -8.33313  -1.61721  -0.51080 H   0  0  0  0  0  0
  -9.50558  -0.92023   0.57479 H   0  0  0  0  0  0
  -7.38970  -3.73837  -1.24377 H   0  0  0  0  0  0
  -8.79082  -4.59434  -1.89311 H   0  0  0  0  0  0
  -7.53609  -5.48500  -1.03077 H   0  0  0  0  0  0
  -5.60240  -1.80929  -0.12863 H   0  0  0  0  0  0
  1  2  1  0  0  0
  5  1  1  0  0  0
  2  3  1  0  0  0
  2  4  1  0  0  0
 12  3  1  0  0  0
  5  6  1  0  0  0
  5 10  1  0  0  0
  6  7  1  0  0  0
  7  8  1  0  0  0
  8  9  1  0  0  0
  8 11  1  0  0  0
  9 10  1  0  0  0
 12 13  1  0  0  0
 12 17  1  0  0  0
 13 14  1  0  0  0
 14 15  1  0  0  0
 15 16  1  0  0  0
 15 18  1  0  0  0
 16 17  1  0  0  0
  1 19  1  0  0  0
  1 20  1  0  0  0
  3 21  1  0  0  0
  3 22  1  0  0  0
  4 23  1  0  0  0
  5 24  1  0  0  0
  6 25  1  0  0  0
  6 26  1  0  0  0
  7 27  1  0  0  0
  7 28  1  0  0  0
  8 29  1  0  0  0
  9 30  1  0  0  0
  9 31  1  0  0  0
 10 32  1  0  0  0
 10 33  1  0  0  0
 11 34  1  0  0  0
 11 35  1  0  0  0
 11 36  1  0  0  0
 12 37  1  0  0  0
 13 38  1  0  0  0
 13 39  1  0  0  0
 14 40  1  0  0  0
 14 41  1  0  0  0
 15 42  1  0  0  0
 16 43  1  0  0  0
 16 44  1  0  0  0
 17 45  1  0  0  0
 17 46  1  0  0  0
 18 47  1  0  0  0
 18 48  1  0  0  0
 18 49  1  0  0  0
 50  2  1  0  0  0
M  END
