CIP:1R 2s 3S 4S 5r 6R; BB:P-93.5.1.1.2;
__Jmol-14_05301721583D 1   1.00000     0.00000     0
Jmol version 14.17.2  2017-05-27 15:31 EXTRACT: ({0:17})
 18 18  0  0  0  0              1 V2000
  -2.86293   1.22108  -1.65693 C   0  0  0  0  0  0
  -3.18993   2.57694  -2.34997 C   0  0  0  0  0  0
  -2.83848   3.87603  -1.57796 C   0  0  0  0  0  0
  -1.47967   3.81623  -0.79803 C   0  0  0  0  0  0
  -0.68823   2.49668  -0.99187 C   0  0  0  0  0  0
  -1.54611   1.22538  -0.81082 C   0  0  0  0  0  0
  -4.27920   0.48034  -0.81532 Cl  0  0  0  0  0  0
  -4.81641   2.62062  -3.13890 Cl  0  0  0  0  0  0
  -4.22271   4.53170  -0.61998 Cl  0  0  0  0  0  0
  -1.57927   4.21433   0.95974 Cl  0  0  0  0  0  0
   0.07601   2.48545  -2.62206 Cl  0  0  0  0  0  0
  -1.76880   0.89842   0.94890 Cl  0  0  0  0  0  0
  -2.68532   0.52083  -2.47921 H   0  0  0  0  0  0
  -2.54692   2.59784  -3.23106 H   0  0  0  0  0  0
  -2.70357   4.64617  -2.35128 H   0  0  0  0  0  0
  -0.85994   4.63237  -1.17599 H   0  0  0  0  0  0
   0.16393   2.47101  -0.30565 H   0  0  0  0  0  0
  -0.94829   0.36183  -1.13756 H   0  0  0  0  0  0
  1  2  1  0  0  0
  1  6  1  0  0  0
  1  7  1  0  0  0
  2  3  1  0  0  0
  2  8  1  0  0  0
  3  4  1  0  0  0
  3  9  1  0  0  0
  4  5  1  0  0  0
  4 10  1  0  0  0
  5  6  1  0  0  0
  5 11  1  0  0  0
  6 12  1  0  0  0
  1 13  1  0  0  0
  2 14  1  0  0  0
  3 15  1  0  0  0
  4 16  1  0  0  0
  5 17  1  0  0  0
  6 18  1  0  0  0
M  END
