CIP:1Z 3E 6Z 8E; BB:P-93.5.1.4.2.1;
__Jmol-14_05301721583D 1   1.00000     0.00000     0
Jmol version 14.17.2  2017-05-27 15:31 EXTRACT: ({0:22})
 23 23  0  0  0  0              1 V2000
  -1.77263   1.43067  -0.33892 C   0  0  0  0  0  0
  -2.80120   0.35639  -0.38195 C   0  0  0  0  0  0
  -4.11051   1.05280  -0.30092 C   0  0  0  0  0  0
  -3.91032   2.53287  -0.17930 C   0  0  0  0  0  0
  -2.41769   2.77872  -0.34790 C   0  0  0  0  0  0
  -0.44305   1.23985  -0.25768 C   0  0  0  0  0  0
   0.23228  -0.09072  -0.18688 C   0  0  0  0  0  0
  -5.29313   0.41387  -0.30990 C   0  0  0  0  0  0
  -6.63186   1.06696  -0.20302 C   0  0  0  0  0  0
  -2.68228  -0.32887   0.46481 H   0  0  0  0  0  0
  -2.72688  -0.20081  -1.32226 H   0  0  0  0  0  0
  -4.24516   2.88081   0.80320 H   0  0  0  0  0  0
  -4.47003   3.07781  -0.94565 H   0  0  0  0  0  0
  -2.22338   3.29080  -1.29571 H   0  0  0  0  0  0
  -2.04277   3.41236   0.46376 H   0  0  0  0  0  0
   0.20915   2.10470  -0.23063 H   0  0  0  0  0  0
  -0.42442  -0.92109  -0.47276 H   0  0  0  0  0  0
   0.58619  -0.26966   0.83078 H   0  0  0  0  0  0
   1.09364  -0.10885  -0.85787 H   0  0  0  0  0  0
  -5.30166  -0.66818  -0.38884 H   0  0  0  0  0  0
  -6.59768   2.14214  -0.39337 H   0  0  0  0  0  0
  -7.04141   0.90773   0.79925 H   0  0  0  0  0  0
  -7.32020   0.62571  -0.92780 H   0  0  0  0  0  0
  1  2  1  0  0  0
  1  5  1  0  0  0
  1  6  2  0  0  0
  2  3  1  0  0  0
  3  4  1  0  0  0
  3  8  2  0  0  0
  4  5  1  0  0  0
  6  7  1  0  0  0
  8  9  1  0  0  0
  2 10  1  0  0  0
  2 11  1  0  0  0
  4 12  1  0  0  0
  4 13  1  0  0  0
  5 14  1  0  0  0
  5 15  1  0  0  0
  6 16  1  0  0  0
  7 17  1  0  0  0
  7 18  1  0  0  0
  7 19  1  0  0  0
  8 20  1  0  0  0
  9 21  1  0  0  0
  9 22  1  0  0  0
  9 23  1  0  0  0
M  END
