CIP:SR;BB:P-16.2.4.4, P-16.5.1.7, P-93.4.2.1.1
__Jmol-14_05291700453D 1   1.00000     0.00000     0
Jmol version 14.17.2  2017-05-27 15:31 EXTRACT: ({0:16})
 17 18  0  0  0  0              1 V2000
   1.88664  -0.08524   1.21955 C   0  0  0  0  0  0
   2.91848   0.13334   0.15342 C   0  0  0  0  0  0
   2.96663  -0.97697  -0.57942 C   0  0  0  0  0  0
   1.94791  -1.92206  -0.01988 C   0  0  0  0  0  0
   0.52944  -1.38476  -0.27290 C   0  0  0  0  0  0
   0.49407  -0.10277   0.57251 C   0  0  0  0  0  0
   2.12505  -1.56746   1.44242 C   0  0  0  0  0  0
   1.99621   0.54915   2.10093 H   0  0  0  0  0  0
   3.56628   1.00086   0.05808 H   0  0  0  0  0  0
   3.68234  -1.20298  -1.36418 H   0  0  0  0  0  0
   2.10512  -2.96592  -0.30334 H   0  0  0  0  0  0
  -0.22207  -2.09328   0.09113 H   0  0  0  0  0  0
   0.32319  -1.19360  -1.32879 H   0  0  0  0  0  0
   0.29831   0.78651  -0.04402 H   0  0  0  0  0  0
  -0.29466  -0.16310   1.32833 H   0  0  0  0  0  0
   1.38455  -2.03550   2.10539 H   0  0  0  0  0  0
   3.13025  -1.79415   1.83613 H   0  0  0  0  0  0
  1  2  1  0  0  0
  1  6  1  0  0  0
  1  7  1  0  0  0
  2  3  2  0  0  0
  3  4  1  0  0  0
  4  5  1  0  0  0
  4  7  1  0  0  0
  5  6  1  0  0  0
  1  8  1  0  0  0
  2  9  1  0  0  0
  3 10  1  0  0  0
  4 11  1  0  0  0
  5 12  1  0  0  0
  5 13  1  0  0  0
  6 14  1  0  0  0
  6 15  1  0  0  0
  7 16  1  0  0  0
  7 17  1  0  0  0
M  END
