CIP:RSSRR;BB:P-16.2.4.4, P-16.5.1.7, P-93.4.2.1.1
__Jmol-14_05291700463D 1   1.00000     0.00000     0
Jmol version 14.17.2  2017-05-27 15:31 EXTRACT: ({0:71})
 72 78  0  0  0  0              1 V2000
   7.93632   0.82652  -0.75834 N   0  0  0  0  0  0
   6.49366   0.91061  -0.78920 C   0  0  0  0  0  0
   8.42976   1.72997   0.13093 C   0  0  0  0  0  0
   7.53951   2.19149   0.94622 C   0  0  0  0  0  0
   6.11515   1.92242   0.40073 C   0  0  0  0  0  0
   9.56323   2.62081  -0.23780 C   0  0  0  0  0  0
   7.87723   3.40005   1.71452 C   0  0  0  0  0  0
   8.73977   4.29241   1.21599 C   0  0  0  0  0  0
   9.59319   3.92054   0.14291 C   0  0  0  0  0  0
  10.51549   4.82571  -0.33684 O   0  0  0  0  0  0
  10.64306   2.04027  -0.94732 O   0  0  0  0  0  0
  11.81963   2.16712  -0.29139 C   0  0  0  0  0  0
  12.30612   3.27685   0.39642 C   0  0  0  0  0  0
  11.82071   4.71600   0.36277 C   0  0  0  0  0  0
  11.69868   5.53681   1.64154 C   0  0  0  0  0  0
  12.90065   5.39064  -0.45579 C   0  0  0  0  0  0
   5.60280   3.35053  -0.09043 C   0  0  0  0  0  0
   4.85392   1.21497   1.12354 C   0  0  0  0  0  0
   4.09832   3.00598  -0.33515 C   0  0  0  0  0  0
   3.51287   1.85619   0.47199 C   0  0  0  0  0  0
   5.62344   4.68552   0.77662 C   0  0  0  0  0  0
   6.32519   3.80640  -1.39185 C   0  0  0  0  0  0
   3.21883   4.16623  -0.09611 C   0  0  0  0  0  0
   1.79376   3.80225   0.00301 C   0  0  0  0  0  0
   2.55783   1.27735  -0.57842 N   0  0  0  0  0  0
   1.48358   2.26356  -0.89645 C   0  0  0  0  0  0
   1.14820   5.19705   0.54307 C   0  0  0  0  0  0
   1.51271   3.33295   1.33680 N   0  0  0  0  0  0
  -0.23576   4.82871   0.96013 C   0  0  0  0  0  0
   0.01523   3.34873   1.33782 C   0  0  0  0  0  0
   4.04590   2.75411  -1.39595 H   0  0  0  0  0  0
   1.51048   6.36180  -0.42341 C   0  0  0  0  0  0
   1.73133   5.72636   1.81102 O   0  0  0  0  0  0
   0.45684   1.97727  -1.52206 O   0  0  0  0  0  0
   2.33822  -0.18344  -0.53547 C   0  0  0  0  0  0
   2.41027   2.20269   1.58555 C   0  0  0  0  0  0
   8.28638  -0.10838  -0.55914 H   0  0  0  0  0  0
   6.08297  -0.14464  -0.62555 H   0  0  0  0  0  0
   6.13543   1.21085  -1.73554 H   0  0  0  0  0  0
   7.27971   3.64975   2.61723 H   0  0  0  0  0  0
   8.87716   5.28828   1.65969 H   0  0  0  0  0  0
  12.36780   1.22393  -0.29909 H   0  0  0  0  0  0
  13.22921   3.11799   0.90885 H   0  0  0  0  0  0
  11.46942   6.58789   1.43459 H   0  0  0  0  0  0
  12.67443   5.53814   2.18889 H   0  0  0  0  0  0
  10.96786   5.16464   2.35547 H   0  0  0  0  0  0
  13.89086   5.36608   0.09374 H   0  0  0  0  0  0
  12.67560   6.44777  -0.64674 H   0  0  0  0  0  0
  13.06666   4.91742  -1.43481 H   0  0  0  0  0  0
   4.92436   1.42492   2.15860 H   0  0  0  0  0  0
   4.85571   0.10559   1.04209 H   0  0  0  0  0  0
   5.05905   5.51180   0.30613 H   0  0  0  0  0  0
   5.28819   4.54187   1.77801 H   0  0  0  0  0  0
   6.55829   5.15107   0.80549 H   0  0  0  0  0  0
   6.62527   4.89529  -1.36603 H   0  0  0  0  0  0
   5.73262   3.69290  -2.28410 H   0  0  0  0  0  0
   7.29742   3.28514  -1.60238 H   0  0  0  0  0  0
   3.40278   4.87148  -0.90462 H   0  0  0  0  0  0
   3.46441   4.61383   0.86662 H   0  0  0  0  0  0
  -0.96110   4.96452   0.16306 H   0  0  0  0  0  0
  -0.57761   5.38527   1.86232 H   0  0  0  0  0  0
  -0.42336   3.09429   2.27735 H   0  0  0  0  0  0
  -0.46270   2.71586   0.57874 H   0  0  0  0  0  0
   2.51259   6.75632  -0.22243 H   0  0  0  0  0  0
   0.84260   7.20799  -0.31987 H   0  0  0  0  0  0
   1.51586   6.02841  -1.48740 H   0  0  0  0  0  0
   1.50857   5.06461   2.51964 H   0  0  0  0  0  0
   1.59543  -0.47031  -1.27133 H   0  0  0  0  0  0
   1.91591  -0.46316   0.44950 H   0  0  0  0  0  0
   3.25008  -0.73302  -0.68333 H   0  0  0  0  0  0
   1.66738   1.49156   1.36250 H   0  0  0  0  0  0
   2.80650   2.22272   2.62023 H   0  0  0  0  0  0
  1  2  1  0  0  0
  1  3  1  0  0  0
  5  2  1  0  0  0
  3  4  2  0  0  0
  3  6  1  0  0  0
  4  5  1  0  0  0
  4  7  1  0  0  0
  5 17  1  0  0  0
  5 18  1  0  0  0
  6  9  2  0  0  0
  6 11  1  0  0  0
  7  8  2  0  0  0
  8  9  1  0  0  0
  9 10  1  0  0  0
 10 14  1  0  0  0
 11 12  1  0  0  0
 12 13  2  0  0  0
 13 14  1  0  0  0
 14 15  1  0  0  0
 14 16  1  0  0  0
 17 19  1  0  0  0
 17 21  1  0  0  0
 17 22  1  0  0  0
 18 20  1  0  0  0
 19 23  1  0  0  0
 19 20  1  0  0  0
 19 31  1  0  0  0
 20 25  1  0  0  0
 20 36  1  0  0  0
 23 24  1  0  0  0
 24 26  1  0  0  0
 24 27  1  0  0  0
 24 28  1  0  0  0
 25 26  1  0  0  0
 25 35  1  0  0  0
 26 34  2  0  0  0
 27 29  1  0  0  0
 27 32  1  0  0  0
 27 33  1  0  0  0
 28 30  1  0  0  0
 28 36  1  0  0  0
 29 30  1  0  0  0
  1 37  1  0  0  0
  2 38  1  0  0  0
  2 39  1  0  0  0
  7 40  1  0  0  0
  8 41  1  0  0  0
 12 42  1  0  0  0
 13 43  1  0  0  0
 15 44  1  0  0  0
 15 45  1  0  0  0
 15 46  1  0  0  0
 16 47  1  0  0  0
 16 48  1  0  0  0
 16 49  1  0  0  0
 18 50  1  0  0  0
 18 51  1  0  0  0
 21 52  1  0  0  0
 21 53  1  0  0  0
 21 54  1  0  0  0
 22 55  1  0  0  0
 22 56  1  0  0  0
 22 57  1  0  0  0
 23 58  1  0  0  0
 23 59  1  0  0  0
 29 60  1  0  0  0
 29 61  1  0  0  0
 30 62  1  0  0  0
 30 63  1  0  0  0
 32 64  1  0  0  0
 32 65  1  0  0  0
 32 66  1  0  0  0
 33 67  1  0  0  0
 35 68  1  0  0  0
 35 69  1  0  0  0
 35 70  1  0  0  0
 36 71  1  0  0  0
 36 72  1  0  0  0
M  END
