CIP:EE;BB:P-16.2.4.4, P-16.5.1.7, P-93.4.2.1.1
__Jmol-14_05291700423D 1   1.00000     0.00000     0
Jmol version 14.17.2  2017-05-27 15:31 EXTRACT: ({0:11})
 12 11  0  0  0  0              1 V2000
   0.32623  -0.57010   0.26994 C   0  0  0  0  0  0
  -1.15348  -0.39148   0.27808 C   0  0  0  0  0  0
  -1.99773  -1.30086  -0.22148 C   0  0  0  0  0  0
  -3.47741  -1.12209  -0.21330 C   0  0  0  0  0  0
   0.70281  -0.66194  -0.75557 H   0  0  0  0  0  0
   0.61543  -1.45909   0.84284 H   0  0  0  0  0  0
   0.81064   0.29338   0.72703 H   0  0  0  0  0  0
  -1.54041   0.52805   0.71535 H   0  0  0  0  0  0
  -1.61084  -2.22040  -0.65876 H   0  0  0  0  0  0
  -3.76653  -0.23323  -0.78632 H   0  0  0  0  0  0
  -3.85402  -1.02998   0.81232 H   0  0  0  0  0  0
  -3.96191  -1.98553  -0.67018 H   0  0  0  0  0  0
  1  2  1  0  0  0
  2  3  2  0  0  0
  3  4  1  0  0  0
  1  5  1  0  0  0
  1  6  1  0  0  0
  1  7  1  0  0  0
  2  8  1  0  0  0
  3  9  1  0  0  0
  4 10  1  0  0  0
  4 11  1  0  0  0
  4 12  1  0  0  0
M  END
