CIP:RSr;BB:P-16.2.4.4, P-16.5.1.7, P-93.4.2.1.1
__Jmol-14_05291700453D 1   1.00000     0.00000     0
Jmol version 14.17.2  2017-05-27 15:31 EXTRACT: ({0:17})
 18 18  0  0  0  0              1 V2000
   0.83218  -0.80512  -0.04647 C   0  0  0  0  0  0
   0.57690  -2.33905  -0.02775 C   0  0  0  0  0  0
   1.90939  -2.97481   0.37271 C   0  0  0  0  0  0
   2.98634  -1.95538   0.03532 C   0  0  0  0  0  0
   2.30725  -0.62536   0.32760 C   0  0  0  0  0  0
   0.42101   0.14972  -1.56650 S   0  0  0  0  0  0
  -0.10018  -3.15485  -1.53393 S   0  0  0  0  0  0
   3.55281  -2.08047  -1.70213 S   0  0  0  0  0  0
   0.22445  -0.34184   0.73718 H   0  0  0  0  0  0
  -0.15735  -2.56037   0.75525 H   0  0  0  0  0  0
   2.09757  -3.96990  -0.04851 H   0  0  0  0  0  0
   1.90755  -3.11123   1.46141 H   0  0  0  0  0  0
   3.86827  -2.09378   0.66755 H   0  0  0  0  0  0
   2.36098  -0.45456   1.41005 H   0  0  0  0  0  0
   2.80415   0.23583  -0.13236 H   0  0  0  0  0  0
  -0.87666  -0.17893  -1.62201 H   0  0  0  0  0  0
  -1.17804  -2.37152  -1.67485 H   0  0  0  0  0  0
   3.85430  -3.38753  -1.68090 H   0  0  0  0  0  0
  1  2  1  0  0  0
  1  5  1  0  0  0
  1  6  1  0  0  0
  2  3  1  0  0  0
  2  7  1  0  0  0
  3  4  1  0  0  0
  4  5  1  0  0  0
  4  8  1  0  0  0
  1  9  1  0  0  0
  2 10  1  0  0  0
  3 11  1  0  0  0
  3 12  1  0  0  0
  4 13  1  0  0  0
  5 14  1  0  0  0
  5 15  1  0  0  0
  6 16  1  0  0  0
  7 17  1  0  0  0
  8 18  1  0  0  0
M  END
