CIP:; BB:P-93.5.3.3;
__Jmol-14_05301721583D 1   1.00000     0.00000     0
Jmol version 14.17.2  2017-05-27 15:31 EXTRACT: ({0:25})
 26 27  0  0  0  0              1 V2000
  -2.70077   1.10843   0.57199 C   0  0  0  0  0  0
  -1.81132   2.03003  -0.25781 C   0  0  0  0  0  0
  -1.75114   0.02887   1.25403 C   0  0  0  0  0  0
  -0.37613   2.34910   0.18263 C   0  0  0  0  0  0
  -0.28786  -0.12530   0.76910 C   0  0  0  0  0  0
   0.48987   1.11921   0.43084 C   0  0  0  0  0  0
  -3.73170   0.07486  -0.06900 C   0  0  0  0  0  0
  -3.74641   2.03450   1.27933 C   0  0  0  0  0  0
  -4.84979   0.89516  -0.56420 C   0  0  0  0  0  0
  -4.83452   2.02230   0.19487 C   0  0  0  0  0  0
  -2.28621   3.04702  -0.34418 H   0  0  0  0  0  0
  -1.78951   1.68104  -1.30780 H   0  0  0  0  0  0
  -2.11123  -0.95817   1.00123 H   0  0  0  0  0  0
  -1.84278   0.05086   2.31957 H   0  0  0  0  0  0
  -0.39673   2.93315   1.13758 H   0  0  0  0  0  0
   0.10873   2.99856  -0.55103 H   0  0  0  0  0  0
  -0.23218  -0.82268  -0.05216 H   0  0  0  0  0  0
   0.26532  -0.64374   1.61191 H   0  0  0  0  0  0
   1.24264   1.32790   1.15509 H   0  0  0  0  0  0
   1.05471   0.90704  -0.52645 H   0  0  0  0  0  0
  -4.16469  -0.58912   0.68567 H   0  0  0  0  0  0
  -3.33372  -0.51649  -0.86276 H   0  0  0  0  0  0
  -3.38071   3.08753   1.50207 H   0  0  0  0  0  0
  -4.15210   1.62374   2.22981 H   0  0  0  0  0  0
  -5.51244   0.65032  -1.33923 H   0  0  0  0  0  0
  -5.51499   2.82810   0.01391 H   0  0  0  0  0  0
  1  2  1  0  0  0
  1  3  1  0  0  0
  1  7  1  0  0  0
  1  8  1  0  0  0
  2  4  1  0  0  0
  3  5  1  0  0  0
  4  6  1  0  0  0
  5  6  1  0  0  0
  7  9  1  0  0  0
  8 10  1  0  0  0
  9 10  2  0  0  0
  2 11  1  0  0  0
  2 12  1  0  0  0
  3 13  1  0  0  0
  3 14  1  0  0  0
  4 15  1  0  0  0
  4 16  1  0  0  0
  5 17  1  0  0  0
  5 18  1  0  0  0
  6 19  1  0  0  0
  6 20  1  0  0  0
  7 21  1  0  0  0
  7 22  1  0  0  0
  8 23  1  0  0  0
  8 24  1  0  0  0
  9 25  1  0  0  0
 10 26  1  0  0  0
M  END
