CIP:1r 4r; BB:P-93.5.1.1.2;
__Jmol-14_05301721583D 1   1.00000     0.00000     0
Jmol version 14.17.2  2017-05-27 15:31 EXTRACT: ({0:21})
 22 22  0  0  0  0              1 V2000
   1.36094   0.18496   1.06464 C   0  0  0  0  0  0
   0.99397   1.57733   0.55859 C   0  0  0  0  0  0
   2.04142   2.67720   0.74093 C   0  0  0  0  0  0
   3.48825   2.24755   1.08484 C   0  0  0  0  0  0
   3.84514   0.83225   0.57296 C   0  0  0  0  0  0
   2.77674  -0.26015   0.70101 C   0  0  0  0  0  0
   1.20753   0.13675   2.48090 O   0  0  0  0  0  0
   4.61475   3.41221   0.29023 Cl  0  0  0  0  0  0
   3.76087   2.38265   2.59047 C   0  0  0  0  0  0
   0.65272  -0.54266   0.65650 H   0  0  0  0  0  0
   0.06568   1.90721   1.04262 H   0  0  0  0  0  0
   0.76553   1.49917  -0.50983 H   0  0  0  0  0  0
   1.68082   3.38643   1.49094 H   0  0  0  0  0  0
   2.03238   3.25583  -0.19166 H   0  0  0  0  0  0
   4.75943   0.48089   1.06331 H   0  0  0  0  0  0
   4.10926   0.88831  -0.48716 H   0  0  0  0  0  0
   2.73079  -0.77711  -0.26701 H   0  0  0  0  0  0
   3.11927  -1.01077   1.41732 H   0  0  0  0  0  0
   0.25621   0.20885   2.67306 H   0  0  0  0  0  0
   3.49335   3.38317   2.95747 H   0  0  0  0  0  0
   4.82214   2.23953   2.82148 H   0  0  0  0  0  0
   3.19575   1.65760   3.18082 H   0  0  0  0  0  0
  1  2  1  0  0  0
  1  6  1  0  0  0
  1  7  1  0  0  0
  2  3  1  0  0  0
  3  4  1  0  0  0
  4  5  1  0  0  0
  4  8  1  0  0  0
  4  9  1  0  0  0
  5  6  1  0  0  0
  1 10  1  0  0  0
  2 11  1  0  0  0
  2 12  1  0  0  0
  3 13  1  0  0  0
  3 14  1  0  0  0
  5 15  1  0  0  0
  5 16  1  0  0  0
  6 17  1  0  0  0
  6 18  1  0  0  0
  7 19  1  0  0  0
  9 20  1  0  0  0
  9 21  1  0  0  0
  9 22  1  0  0  0
M  END
