CIP:9r 10r 19r 28r; BB:P-93.5.5.2;
__Jmol-14_05301721583D 1   1.00000     0.00000     0
Jmol version 14.17.2  2017-05-27 15:31 EXTRACT: ({0:167})
168172  0  0  0  0              1 V2000
  11.16901  -9.85682  -3.42039 C   0  0  0  0  0  0
  12.54025  -9.44237  -4.30396 C   0  0  0  0  0  0
  10.44550  -8.93099  -3.20419 C   0  0  0  0  0  0
  12.54285  -8.09557  -4.83293 C   0  0  0  0  0  0
  10.22310  -7.73553  -3.74230 C   0  0  0  0  0  0
  11.47465  -7.16455  -4.57939 C   0  0  0  0  0  0
  10.63632 -11.24136  -2.72038 O   0  0  0  0  0  0
   8.74498  -7.21158  -3.33737 O   0  0  0  0  0  0
  11.38441  -5.65427  -5.09341 C   0  0  0  0  0  0
  13.22088 -10.62748  -5.08277 C   0  0  0  0  0  0
  15.13669 -11.73601  -6.31560 C   0  0  0  0  0  0
  14.72318 -10.73463  -5.38571 C   0  0  0  0  0  0
  16.43541 -11.96727  -6.64460 C   0  0  0  0  0  0
  15.74385  -9.87369  -4.87947 C   0  0  0  0  0  0
  17.38028 -11.08205  -6.19996 C   0  0  0  0  0  0
  17.08738  -9.98733  -5.33519 C   0  0  0  0  0  0
  14.27207 -12.53292  -7.04599 O   0  0  0  0  0  0
  18.62849 -11.25393  -6.76255 O   0  0  0  0  0  0
  18.56171  -9.00834  -5.36894 C   0  0  0  0  0  0
  18.91537  -7.10641  -6.61664 C   0  0  0  0  0  0
  18.07333  -7.51602  -5.54801 C   0  0  0  0  0  0
  18.77916  -5.91001  -7.25231 C   0  0  0  0  0  0
  17.18622  -6.53263  -5.01119 C   0  0  0  0  0  0
  17.83843  -5.01967  -6.78920 C   0  0  0  0  0  0
  17.08409  -5.24292  -5.61329 C   0  0  0  0  0  0
  19.95140  -7.87968  -7.11707 O   0  0  0  0  0  0
  17.72231  -3.83288  -7.48540 O   0  0  0  0  0  0
  16.43213  -3.99742  -4.97056 C   0  0  0  0  0  0
  12.27046  -3.20054  -4.92113 C   0  0  0  0  0  0
  12.56076  -4.60758  -4.88497 C   0  0  0  0  0  0
  13.16088  -2.21866  -4.56694 C   0  0  0  0  0  0
  13.95624  -4.90414  -4.76820 C   0  0  0  0  0  0
  14.47552  -2.54894  -4.43269 C   0  0  0  0  0  0
  14.94104  -3.87254  -4.61973 C   0  0  0  0  0  0
  11.08083  -2.69839  -5.41046 O   0  0  0  0  0  0
  15.36431  -1.49343  -4.28821 O   0  0  0  0  0  0
  12.62462 -12.05925  -4.76738 C   0  0  0  0  0  0
  11.26379 -12.23055  -5.45545 C   0  0  0  0  0  0
  10.49954 -13.45201  -4.97689 C   0  0  0  0  0  0
   9.03908 -13.36540  -5.41645 C   0  0  0  0  0  0
   8.28183 -14.62016  -5.01364 C   0  0  0  0  0  0
   6.78376 -14.50391  -5.27642 C   0  0  0  0  0  0
   6.10079 -15.82393  -4.93527 C   0  0  0  0  0  0
   4.59025 -15.76448  -5.10284 C   0  0  0  0  0  0
   3.95976 -17.10834  -4.77735 C   0  0  0  0  0  0
  19.36834  -9.24319  -4.04236 C   0  0  0  0  0  0
  20.25740 -10.38019  -4.60735 C   0  0  0  0  0  0
  21.66120 -10.67381  -4.09034 C   0  0  0  0  0  0
  21.79061 -12.16607  -3.74582 C   0  0  0  0  0  0
  22.84220 -12.89519  -4.57333 C   0  0  0  0  0  0
  22.90187 -14.36542  -4.16130 C   0  0  0  0  0  0
  24.07073 -15.09017  -4.81232 C   0  0  0  0  0  0
  24.30850 -16.45635  -4.16706 C   0  0  0  0  0  0
  25.61269 -17.05973  -4.65662 C   0  0  0  0  0  0
  17.48518  -3.28062  -4.04440 C   0  0  0  0  0  0
  18.45862  -2.42123  -4.89665 C   0  0  0  0  0  0
  19.14533  -1.23719  -4.20699 C   0  0  0  0  0  0
  20.67499  -1.26631  -4.38629 C   0  0  0  0  0  0
  21.24637   0.08869  -4.80610 C   0  0  0  0  0  0
  22.77230   0.04842  -4.92450 C   0  0  0  0  0  0
  23.33288   1.40956  -5.33991 C   0  0  0  0  0  0
  24.86086   1.44683  -5.26650 C   0  0  0  0  0  0
  25.38921   2.84250  -5.56270 C   0  0  0  0  0  0
  10.05548  -4.96389  -4.53872 C   0  0  0  0  0  0
   9.01462  -4.71888  -5.65180 C   0  0  0  0  0  0
   7.85299  -3.84215  -5.17022 C   0  0  0  0  0  0
   7.75711  -2.52225  -5.94130 C   0  0  0  0  0  0
   6.67200  -1.62896  -5.35366 C   0  0  0  0  0  0
   6.51340  -0.31539  -6.12147 C   0  0  0  0  0  0
   5.30560   0.44775  -5.57710 C   0  0  0  0  0  0
   5.07467   1.77355  -6.29270 C   0  0  0  0  0  0
   3.79675   2.43430  -5.79907 C   0  0  0  0  0  0
   9.59970  -9.27017  -2.62199 H   0  0  0  0  0  0
  13.30647  -7.82169  -5.54895 H   0  0  0  0  0  0
   9.72341 -11.51635  -2.53205 H   0  0  0  0  0  0
   8.15852  -7.48705  -2.61763 H   0  0  0  0  0  0
  11.29308  -5.74881  -6.17909 H   0  0  0  0  0  0
  12.84216 -10.40696  -6.08577 H   0  0  0  0  0  0
  16.68343 -12.75375  -7.34766 H   0  0  0  0  0  0
  15.47583  -9.07478  -4.19144 H   0  0  0  0  0  0
  13.54731 -11.96809  -7.35299 H   0  0  0  0  0  0
  18.79919 -12.21474  -6.81049 H   0  0  0  0  0  0
  19.41073  -5.68168  -8.10060 H   0  0  0  0  0  0
  16.61721  -6.75539  -4.11307 H   0  0  0  0  0  0
  19.54684  -8.67359  -7.51785 H   0  0  0  0  0  0
  18.56950  -3.67048  -7.93935 H   0  0  0  0  0  0
  12.85021  -1.17849  -4.53541 H   0  0  0  0  0  0
  14.29575  -5.92730  -4.89223 H   0  0  0  0  0  0
  10.84947  -1.89489  -4.90766 H   0  0  0  0  0  0
  14.90234  -0.65297  -4.42822 H   0  0  0  0  0  0
  12.58744 -12.27521  -3.70067 H   0  0  0  0  0  0
  13.25025 -12.89277  -5.09365 H   0  0  0  0  0  0
  11.40878 -12.30585  -6.54079 H   0  0  0  0  0  0
  10.64410 -11.34118  -5.30365 H   0  0  0  0  0  0
  10.54270 -13.51649  -3.88634 H   0  0  0  0  0  0
  10.97153 -14.36272  -5.37199 H   0  0  0  0  0  0
   8.97644 -13.23040  -6.50593 H   0  0  0  0  0  0
   8.57188 -12.48718  -4.96036 H   0  0  0  0  0  0
   8.44417 -14.81692  -3.94608 H   0  0  0  0  0  0
   8.69092 -15.47604  -5.55604 H   0  0  0  0  0  0
   6.60351 -14.25084  -6.32521 H   0  0  0  0  0  0
   6.35900 -13.69078  -4.67057 H   0  0  0  0  0  0
   6.33889 -16.10260  -3.90071 H   0  0  0  0  0  0
   6.51104 -16.61818  -5.57413 H   0  0  0  0  0  0
   4.33724 -15.48601  -6.13415 H   0  0  0  0  0  0
   4.16940 -14.99663  -4.45010 H   0  0  0  0  0  0
   4.17841 -17.40552  -3.74451 H   0  0  0  0  0  0
   4.33646 -17.89015  -5.44163 H   0  0  0  0  0  0
   2.87556 -17.05991  -4.89241 H   0  0  0  0  0  0
  18.96487  -9.52068  -3.06500 H   0  0  0  0  0  0
  19.98696  -8.34765  -3.89317 H   0  0  0  0  0  0
  20.43251 -10.19830  -5.66739 H   0  0  0  0  0  0
  19.64537 -11.28350  -4.54699 H   0  0  0  0  0  0
  21.96170 -10.03512  -3.25874 H   0  0  0  0  0  0
  22.37196 -10.42502  -4.89005 H   0  0  0  0  0  0
  20.84302 -12.69978  -3.89158 H   0  0  0  0  0  0
  22.02362 -12.26017  -2.68003 H   0  0  0  0  0  0
  23.81817 -12.41791  -4.42332 H   0  0  0  0  0  0
  22.60764 -12.82041  -5.64346 H   0  0  0  0  0  0
  21.96297 -14.86811  -4.41270 H   0  0  0  0  0  0
  23.00289 -14.42187  -3.06914 H   0  0  0  0  0  0
  24.97356 -14.48288  -4.71445 H   0  0  0  0  0  0
  23.88278 -15.20811  -5.88791 H   0  0  0  0  0  0
  23.47786 -17.12961  -4.39349 H   0  0  0  0  0  0
  24.35524 -16.35616  -3.07916 H   0  0  0  0  0  0
  26.46200 -16.41165  -4.40956 H   0  0  0  0  0  0
  25.59813 -17.20451  -5.73745 H   0  0  0  0  0  0
  25.78525 -18.03149  -4.18273 H   0  0  0  0  0  0
  18.06557  -4.01408  -3.47904 H   0  0  0  0  0  0
  17.01803  -2.66462  -3.27125 H   0  0  0  0  0  0
  17.92038  -1.98232  -5.74489 H   0  0  0  0  0  0
  19.20270  -3.08964  -5.33277 H   0  0  0  0  0  0
  18.89258  -1.19538  -3.14545 H   0  0  0  0  0  0
  18.74147  -0.31800  -4.64546 H   0  0  0  0  0  0
  20.98057  -2.00669  -5.12658 H   0  0  0  0  0  0
  21.12920  -1.58000  -3.43867 H   0  0  0  0  0  0
  20.95580   0.84864  -4.07811 H   0  0  0  0  0  0
  20.81246   0.38753  -5.76901 H   0  0  0  0  0  0
  23.07471  -0.71273  -5.65562 H   0  0  0  0  0  0
  23.19978  -0.24853  -3.96265 H   0  0  0  0  0  0
  22.92250   2.18538  -4.68812 H   0  0  0  0  0  0
  23.00656   1.64597  -6.35697 H   0  0  0  0  0  0
  25.28894   0.73355  -5.97549 H   0  0  0  0  0  0
  25.19353   1.14951  -4.26940 H   0  0  0  0  0  0
  24.99701   3.57451  -4.85296 H   0  0  0  0  0  0
  25.11231   3.16225  -6.57422 H   0  0  0  0  0  0
  26.48337   2.85693  -5.49370 H   0  0  0  0  0  0
  10.23856  -4.03619  -3.99862 H   0  0  0  0  0  0
   9.59835  -5.46345  -3.68649 H   0  0  0  0  0  0
   8.61723  -5.67391  -6.00059 H   0  0  0  0  0  0
   9.49125  -4.27027  -6.53256 H   0  0  0  0  0  0
   7.93804  -3.63715  -4.09528 H   0  0  0  0  0  0
   6.91886  -4.39385  -5.29587 H   0  0  0  0  0  0
   7.53790  -2.73131  -6.99775 H   0  0  0  0  0  0
   8.70823  -1.98950  -5.91425 H   0  0  0  0  0  0
   6.90433  -1.41095  -4.30262 H   0  0  0  0  0  0
   5.72438  -2.17177  -5.35783 H   0  0  0  0  0  0
   6.37327  -0.51883  -7.18613 H   0  0  0  0  0  0
   7.41989   0.28842  -6.02227 H   0  0  0  0  0  0
   5.43686   0.62969  -4.50831 H   0  0  0  0  0  0
   4.40968  -0.17811  -5.68024 H   0  0  0  0  0  0
   5.00325   1.61520  -7.37043 H   0  0  0  0  0  0
   5.92500   2.44588  -6.11937 H   0  0  0  0  0  0
   3.84485   2.63209  -4.72150 H   0  0  0  0  0  0
   2.92892   1.79705  -5.98735 H   0  0  0  0  0  0
   3.63484   3.38432  -6.31025 H   0  0  0  0  0  0
  19.09485  -9.30744  -6.24274 H   0  0  0  0  0  0
  16.35584  -3.33762  -5.83760 H   0  0  0  0  0  0
  1  2  1  0  0  0
  1  3  2  0  0  0
  1  7  1  0  0  0
  2  4  2  0  0  0
  2 10  1  0  0  0
  3  5  1  0  0  0
  4  6  1  0  0  0
  5  6  2  0  0  0
  5  8  1  0  0  0
  6  9  1  0  0  0
  9 30  1  0  0  0
  9 64  1  0  0  0
 10 12  1  0  0  0
 10 37  1  0  0  0
 11 12  1  0  0  0
 11 13  2  0  0  0
 11 17  1  0  0  0
 12 14  2  0  0  0
 13 15  1  0  0  0
 14 16  1  0  0  0
 15 16  2  0  0  0
 15 18  1  0  0  0
 16 19  1  0  0  0
 19 21  1  0  0  0
 19 46  1  0  0  0
 20 21  1  0  0  0
 20 22  2  0  0  0
 20 26  1  0  0  0
 21 23  2  0  0  0
 22 24  1  0  0  0
 23 25  1  0  0  0
 24 25  2  0  0  0
 24 27  1  0  0  0
 25 28  1  0  0  0
 28 34  1  0  0  0
 28 55  1  0  0  0
 29 30  1  0  0  0
 29 31  2  0  0  0
 29 35  1  0  0  0
 30 32  2  0  0  0
 31 33  1  0  0  0
 32 34  1  0  0  0
 33 34  2  0  0  0
 33 36  1  0  0  0
 37 38  1  0  0  0
 38 39  1  0  0  0
 39 40  1  0  0  0
 40 41  1  0  0  0
 41 42  1  0  0  0
 42 43  1  0  0  0
 43 44  1  0  0  0
 44 45  1  0  0  0
 46 47  1  0  0  0
 47 48  1  0  0  0
 48 49  1  0  0  0
 49 50  1  0  0  0
 50 51  1  0  0  0
 51 52  1  0  0  0
 52 53  1  0  0  0
 53 54  1  0  0  0
 55 56  1  0  0  0
 56 57  1  0  0  0
 57 58  1  0  0  0
 58 59  1  0  0  0
 59 60  1  0  0  0
 60 61  1  0  0  0
 61 62  1  0  0  0
 62 63  1  0  0  0
 64 65  1  0  0  0
 65 66  1  0  0  0
 66 67  1  0  0  0
 67 68  1  0  0  0
 68 69  1  0  0  0
 69 70  1  0  0  0
 70 71  1  0  0  0
 71 72  1  0  0  0
  3 73  1  0  0  0
  4 74  1  0  0  0
  7 75  1  0  0  0
  8 76  1  0  0  0
  9 77  1  0  0  0
 10 78  1  0  0  0
 13 79  1  0  0  0
 14 80  1  0  0  0
 17 81  1  0  0  0
 18 82  1  0  0  0
 22 83  1  0  0  0
 23 84  1  0  0  0
 26 85  1  0  0  0
 27 86  1  0  0  0
 31 87  1  0  0  0
 32 88  1  0  0  0
 35 89  1  0  0  0
 36 90  1  0  0  0
 37 91  1  0  0  0
 37 92  1  0  0  0
 38 93  1  0  0  0
 38 94  1  0  0  0
 39 95  1  0  0  0
 39 96  1  0  0  0
 40 97  1  0  0  0
 40 98  1  0  0  0
 41 99  1  0  0  0
 41100  1  0  0  0
 42101  1  0  0  0
 42102  1  0  0  0
 43103  1  0  0  0
 43104  1  0  0  0
 44105  1  0  0  0
 44106  1  0  0  0
 45107  1  0  0  0
 45108  1  0  0  0
 45109  1  0  0  0
 46110  1  0  0  0
 46111  1  0  0  0
 47112  1  0  0  0
 47113  1  0  0  0
 48114  1  0  0  0
 48115  1  0  0  0
 49116  1  0  0  0
 49117  1  0  0  0
 50118  1  0  0  0
 50119  1  0  0  0
 51120  1  0  0  0
 51121  1  0  0  0
 52122  1  0  0  0
 52123  1  0  0  0
 53124  1  0  0  0
 53125  1  0  0  0
 54126  1  0  0  0
 54127  1  0  0  0
 54128  1  0  0  0
 55129  1  0  0  0
 55130  1  0  0  0
 56131  1  0  0  0
 56132  1  0  0  0
 57133  1  0  0  0
 57134  1  0  0  0
 58135  1  0  0  0
 58136  1  0  0  0
 59137  1  0  0  0
 59138  1  0  0  0
 60139  1  0  0  0
 60140  1  0  0  0
 61141  1  0  0  0
 61142  1  0  0  0
 62143  1  0  0  0
 62144  1  0  0  0
 63145  1  0  0  0
 63146  1  0  0  0
 63147  1  0  0  0
 64148  1  0  0  0
 64149  1  0  0  0
 65150  1  0  0  0
 65151  1  0  0  0
 66152  1  0  0  0
 66153  1  0  0  0
 67154  1  0  0  0
 67155  1  0  0  0
 68156  1  0  0  0
 68157  1  0  0  0
 69158  1  0  0  0
 69159  1  0  0  0
 70160  1  0  0  0
 70161  1  0  0  0
 71162  1  0  0  0
 71163  1  0  0  0
 72164  1  0  0  0
 72165  1  0  0  0
 72166  1  0  0  0
167 19  1  0  0  0
168 28  1  0  0  0
M  END
