CIP:2R 4S 5S 8S 10S 13R 15R 20S 21R 23S 25R 28R 30R; BB:P-92.5.2.2;
__Jmol-14_05301721583D 1   1.00000     0.00000     0
Jmol version 14.17.2  2017-05-27 15:31 EXTRACT: ({0:83})
 84 83  0  0  0  0              1 V2000
   3.18519  -1.14815   0.76691 C   0  0  0  0  0  0
   4.64752  -2.10713   0.78503 C   0  0  0  0  0  0
   6.40727  -2.03057   0.72146 C   0  0  0  0  0  0
   6.99848  -2.91550  -0.65056 C   0  0  0  0  0  0
   8.56181  -3.12593  -0.88842 C   0  0  0  0  0  0
   8.93823  -3.04565  -2.37534 C   0  0  0  0  0  0
   4.33117  -3.21294  -0.02563 O   0  0  0  0  0  0
   6.90339  -2.83247   2.13174 C   0  0  0  0  0  0
   6.18067  -2.51314   3.48192 C   0  0  0  0  0  0
   8.43239  -3.02138   2.48922 C   0  0  0  0  0  0
   8.69693  -4.39994   3.11869 C   0  0  0  0  0  0
   9.13965  -1.81827   3.62414 Cl  0  0  0  0  0  0
   6.86639  -0.47397   0.60367 C   0  0  0  0  0  0
   6.97797   0.24301   1.94252 C   0  0  0  0  0  0
   8.08952   0.01218  -0.28198 C   0  0  0  0  0  0
   7.97779   1.48125  -0.69260 C   0  0  0  0  0  0
   9.70920  -0.14691   0.49503 Cl  0  0  0  0  0  0
   6.35973  -4.30005  -0.97607 C   0  0  0  0  0  0
   9.24164  -4.68797  -0.27647 Cl  0  0  0  0  0  0
   2.06352  -2.21410   1.39147 C   0  0  0  0  0  0
   1.65892  -3.64532   0.84070 C   0  0  0  0  0  0
   0.32160  -4.11839   1.43292 C   0  0  0  0  0  0
   2.89412   0.34929   1.71859 C   0  0  0  0  0  0
   3.90623   0.97193   2.68431 C   0  0  0  0  0  0
   1.50893   0.77548   2.46259 C   0  0  0  0  0  0
   0.31968   1.14701   1.61215 C   0  0  0  0  0  0
   0.94639  -0.15309   3.88061 Cl  0  0  0  0  0  0
   2.91221  -0.62044  -0.82083 C   0  0  0  0  0  0
   3.59367  -1.26143  -2.05352 C   0  0  0  0  0  0
   1.44577  -0.16364  -1.20531 C   0  0  0  0  0  0
   1.39464   1.26193  -1.76752 C   0  0  0  0  0  0
   0.56536  -1.16345  -2.40500 Cl  0  0  0  0  0  0
   2.45765  -2.54861   2.85994 C   0  0  0  0  0  0
   1.52146  -3.80413  -0.91656 Cl  0  0  0  0  0  0
   6.68150  -2.28851  -1.48571 H   0  0  0  0  0  0
   9.13890  -2.37556  -0.38390 H   0  0  0  0  0  0
   8.48878  -3.84884  -2.96367 H   0  0  0  0  0  0
  10.02561  -3.10824  -2.50937 H   0  0  0  0  0  0
   8.61928  -2.09654  -2.81830 H   0  0  0  0  0  0
   3.53024  -3.08034  -0.56278 H   0  0  0  0  0  0
   6.55861  -3.85072   1.91612 H   0  0  0  0  0  0
   6.52925  -1.61028   3.97509 H   0  0  0  0  0  0
   6.34101  -3.32235   4.20082 H   0  0  0  0  0  0
   5.10332  -2.41104   3.44044 H   0  0  0  0  0  0
   9.04688  -2.92106   1.61361 H   0  0  0  0  0  0
   8.23761  -4.49941   4.10540 H   0  0  0  0  0  0
   9.76882  -4.57432   3.24168 H   0  0  0  0  0  0
   8.30638  -5.20670   2.49645 H   0  0  0  0  0  0
   6.00314  -0.01992   0.10110 H   0  0  0  0  0  0
   6.78989   1.31214   1.82257 H   0  0  0  0  0  0
   7.95188   0.17353   2.41363 H   0  0  0  0  0  0
   6.27072  -0.15885   2.65645 H   0  0  0  0  0  0
   8.13031  -0.54688  -1.21575 H   0  0  0  0  0  0
   8.79139   1.76134  -1.36857 H   0  0  0  0  0  0
   8.02800   2.16307   0.16618 H   0  0  0  0  0  0
   7.03938   1.67237  -1.21993 H   0  0  0  0  0  0
   6.13660  -4.88346  -0.07603 H   0  0  0  0  0  0
   6.98247  -4.93499  -1.61105 H   0  0  0  0  0  0
   5.46212  -4.20029  -1.58639 H   0  0  0  0  0  0
   1.12672  -1.65545   1.41558 H   0  0  0  0  0  0
   2.41600  -4.39339   1.11213 H   0  0  0  0  0  0
   0.02146  -5.08773   1.02798 H   0  0  0  0  0  0
  -0.48106  -3.40688   1.21834 H   0  0  0  0  0  0
   0.36944  -4.24431   2.52047 H   0  0  0  0  0  0
   2.93861   1.10319   0.93648 H   0  0  0  0  0  0
   3.71867   2.04921   2.75709 H   0  0  0  0  0  0
   3.86048   0.64091   3.72593 H   0  0  0  0  0  0
   4.89437   0.98366   2.29567 H   0  0  0  0  0  0
   1.71525   1.73156   2.95256 H   0  0  0  0  0  0
  -0.38134   1.76350   2.17962 H   0  0  0  0  0  0
   0.66437   1.75601   0.77787 H   0  0  0  0  0  0
  -0.24380   0.27640   1.26559 H   0  0  0  0  0  0
   3.48392   0.31341  -0.81157 H   0  0  0  0  0  0
   3.47555  -0.61325  -2.92776 H   0  0  0  0  0  0
   3.18330  -2.22882  -2.34894 H   0  0  0  0  0  0
   4.66786  -1.37521  -1.92646 H   0  0  0  0  0  0
   0.82047  -0.22779  -0.32602 H   0  0  0  0  0  0
   0.36150   1.61402  -1.84779 H   0  0  0  0  0  0
   1.83692   1.31844  -2.77063 H   0  0  0  0  0  0
   1.92939   1.97199  -1.13468 H   0  0  0  0  0  0
   3.08173  -3.44744   2.93495 H   0  0  0  0  0  0
   1.58528  -2.76544   3.48207 H   0  0  0  0  0  0
   3.01893  -1.75517   3.34734 H   0  0  0  0  0  0
   4.53190  -2.58257   1.72786 H   0  0  0  0  0  0
  1  2  1  0  0  0
  1 20  1  0  0  0
  1 23  1  0  0  0
  1 28  1  0  0  0
  2  3  1  0  0  0
  2  7  1  0  0  0
  3  4  1  0  0  0
  3  8  1  0  0  0
  3 13  1  0  0  0
  4  5  1  0  0  0
  4 18  1  0  0  0
  5  6  1  0  0  0
  5 19  1  0  0  0
  8  9  1  0  0  0
  8 10  1  0  0  0
 10 11  1  0  0  0
 10 12  1  0  0  0
 13 14  1  0  0  0
 13 15  1  0  0  0
 15 16  1  0  0  0
 15 17  1  0  0  0
 20 21  1  0  0  0
 20 33  1  0  0  0
 21 22  1  0  0  0
 21 34  1  0  0  0
 23 24  1  0  0  0
 23 25  1  0  0  0
 25 26  1  0  0  0
 25 27  1  0  0  0
 28 29  1  0  0  0
 28 30  1  0  0  0
 30 31  1  0  0  0
 30 32  1  0  0  0
  4 35  1  0  0  0
  5 36  1  0  0  0
  6 37  1  0  0  0
  6 38  1  0  0  0
  6 39  1  0  0  0
  7 40  1  0  0  0
  8 41  1  0  0  0
  9 42  1  0  0  0
  9 43  1  0  0  0
  9 44  1  0  0  0
 10 45  1  0  0  0
 11 46  1  0  0  0
 11 47  1  0  0  0
 11 48  1  0  0  0
 13 49  1  0  0  0
 14 50  1  0  0  0
 14 51  1  0  0  0
 14 52  1  0  0  0
 15 53  1  0  0  0
 16 54  1  0  0  0
 16 55  1  0  0  0
 16 56  1  0  0  0
 18 57  1  0  0  0
 18 58  1  0  0  0
 18 59  1  0  0  0
 20 60  1  0  0  0
 21 61  1  0  0  0
 22 62  1  0  0  0
 22 63  1  0  0  0
 22 64  1  0  0  0
 23 65  1  0  0  0
 24 66  1  0  0  0
 24 67  1  0  0  0
 24 68  1  0  0  0
 25 69  1  0  0  0
 26 70  1  0  0  0
 26 71  1  0  0  0
 26 72  1  0  0  0
 28 73  1  0  0  0
 29 74  1  0  0  0
 29 75  1  0  0  0
 29 76  1  0  0  0
 30 77  1  0  0  0
 31 78  1  0  0  0
 31 79  1  0  0  0
 31 80  1  0  0  0
 33 81  1  0  0  0
 33 82  1  0  0  0
 33 83  1  0  0  0
 84  2  1  0  0  0
M  END
