CIP:19P 20P; BB:P-92.1.2.2.1;
__Jmol-14_05301721583D 1   1.00000     0.00000     0
Jmol version 14.17.2  2017-05-27 15:31 EXTRACT: ({0:41})
 42 47  0  0  0  0              1 V2000
  -4.13512   3.04540   2.74986 C   0  0  0  0  0  0
  -3.54261   1.82701   2.51234 C   0  0  0  0  0  0
  -3.43856   4.31221   3.13926 C   0  0  0  0  0  0
  -2.16293   1.43099   2.90656 C   0  0  0  0  0  0
  -2.07343   4.72711   2.68422 C   0  0  0  0  0  0
  -5.60661   3.07798   2.73281 C   0  0  0  0  0  0
  -4.30871   0.84237   1.73096 C   0  0  0  0  0  0
  -4.14161   5.19787   3.90756 C   0  0  0  0  0  0
  -1.55505   0.40199   2.23983 C   0  0  0  0  0  0
  -1.43133   5.75907   3.30291 C   0  0  0  0  0  0
  -3.60494  -0.21017   1.03794 C   0  0  0  0  0  0
  -3.44215   6.30643   4.52929 C   0  0  0  0  0  0
  -5.57991   5.04664   4.10351 C   0  0  0  0  0  0
  -5.63185   0.98780   1.54821 C   0  0  0  0  0  0
  -6.31519   2.09096   2.15871 C   0  0  0  0  0  0
  -6.29357   4.08993   3.49595 C   0  0  0  0  0  0
  -2.29140  -0.37288   1.24786 C   0  0  0  0  0  0
  -2.14689   6.53535   4.29091 C   0  0  0  0  0  0
  -1.44435   1.98549   4.06306 C   0  0  0  0  0  0
  -1.39366   4.13754   1.52153 C   0  0  0  0  0  0
  -0.16120   0.08126   2.53652 C   0  0  0  0  0  0
  -0.05208   6.07996   2.94749 C   0  0  0  0  0  0
  -0.17547   1.65496   4.34651 C   0  0  0  0  0  0
  -0.13558   4.45802   1.18309 C   0  0  0  0  0  0
   0.50882   0.69386   3.52296 C   0  0  0  0  0  0
   0.57929   5.44231   1.95187 C   0  0  0  0  0  0
  -4.12733  -0.83375   0.31878 H   0  0  0  0  0  0
  -3.97807   6.93339   5.23446 H   0  0  0  0  0  0
  -6.09447   5.78433   4.70968 H   0  0  0  0  0  0
  -6.21845   0.29754   0.94910 H   0  0  0  0  0  0
  -7.40091   2.06592   2.17411 H   0  0  0  0  0  0
  -7.36983   4.03722   3.63141 H   0  0  0  0  0  0
  -1.75928  -1.14717   0.70603 H   0  0  0  0  0  0
  -1.63656   7.35393   4.78645 H   0  0  0  0  0  0
  -1.96436   2.66959   4.72343 H   0  0  0  0  0  0
  -1.93451   3.43143   0.90248 H   0  0  0  0  0  0
   0.34401  -0.65789   1.92397 H   0  0  0  0  0  0
   0.47147   6.83649   3.52163 H   0  0  0  0  0  0
   0.34015   2.07833   5.20141 H   0  0  0  0  0  0
   0.34914   4.00692   0.32413 H   0  0  0  0  0  0
   1.54848   0.46768   3.73179 H   0  0  0  0  0  0
   1.60958   5.66435   1.69561 H   0  0  0  0  0  0
  1  2  2  0  0  0
  1  3  1  0  0  0
  1  6  1  0  0  0
  2  4  1  0  0  0
  2  7  1  0  0  0
  3  5  1  0  0  0
  3  8  2  0  0  0
  4  9  2  0  0  0
  4 19  1  0  0  0
  5 10  2  0  0  0
  5 20  1  0  0  0
  6 15  2  0  0  0
  6 16  1  0  0  0
  7 11  1  0  0  0
  7 14  2  0  0  0
  8 12  1  0  0  0
  8 13  1  0  0  0
  9 17  1  0  0  0
  9 21  1  0  0  0
 10 18  1  0  0  0
 10 22  1  0  0  0
 11 17  2  0  0  0
 12 18  2  0  0  0
 13 16  2  0  0  0
 14 15  1  0  0  0
 19 23  2  0  0  0
 20 24  2  0  0  0
 21 25  2  0  0  0
 22 26  2  0  0  0
 25 23  1  0  0  0
 26 24  1  0  0  0
 11 27  1  0  0  0
 12 28  1  0  0  0
 13 29  1  0  0  0
 14 30  1  0  0  0
 15 31  1  0  0  0
 16 32  1  0  0  0
 17 33  1  0  0  0
 18 34  1  0  0  0
 19 35  1  0  0  0
 20 36  1  0  0  0
 21 37  1  0  0  0
 22 38  1  0  0  0
 23 39  1  0  0  0
 24 40  1  0  0  0
 25 41  1  0  0  0
 26 42  1  0  0  0
M  END
