c:/jmol-dev/bobtest/cip/4b/test4b.mol
__Jmol-14_05021715333D 1   1.00000     0.00000     0
Jmol version 14.15.3  2017-04-30 15:40 EXTRACT: ({0:89})
 90 89  0  0  0  0              1 V2000
  -5.67968   2.30876   0.44386 C   0  0  0  0  0  0
  -5.59671   2.98453   1.30606 H   0  0  0  0  0  0
  -6.91151   2.90893  -0.39903 C   0  0  0  0  0  0
  -7.76491   2.90705   0.29418 H   0  0  0  0  0  0
  -7.55837   1.96649  -1.79589 Cl  0  0  0  0  0  0
  -6.83549   4.34150  -0.87081 C   0  0  0  0  0  0
  -4.16786   2.18497  -0.13328 C   0  0  0  0  0  0
  -3.80099   3.20297   0.03442 H   0  0  0  0  0  0
  -4.19458   2.10046  -1.92797 Cl  0  0  0  0  0  0
  -2.97291   1.17028   0.54948 C   0  0  0  0  0  0
  -3.11579   1.29723   1.62385 H   0  0  0  0  0  0
  -2.92524  -0.58851   0.38262 C   0  0  0  0  0  0
  -2.01685  -0.78176   0.90655 H   0  0  0  0  0  0
  -2.51206  -0.98786  -1.29471 Cl  0  0  0  0  0  0
  -3.80199  -1.88399   1.12217 C   0  0  0  0  0  0
  -4.30601  -1.41745   1.95997 H   0  0  0  0  0  0
  -4.96455  -2.75547   0.36509 C   0  0  0  0  0  0
  -5.32805  -2.30073  -0.54516 H   0  0  0  0  0  0
  -4.52153  -4.35308  -0.32817 Cl  0  0  0  0  0  0
  -6.18029  -2.97949   1.30092 C   0  0  0  0  0  0
  -6.18728   0.99444   0.99383 C   0  0  0  0  0  0
  -7.27407   0.97068   1.08688 H   0  0  0  0  0  0
  -5.84678  -0.13615  -0.30034 Cl  0  0  0  0  0  0
  -5.66544   0.66821   2.39640 C   0  0  0  0  0  0
  -1.49015   1.96148   0.41286 C   0  0  0  0  0  0
  -1.64335   2.82187   1.06977 H   0  0  0  0  0  0
  -1.21749   3.12262  -1.18982 Br  0  0  0  0  0  0
  -0.07603   1.39668   0.97089 C   0  0  0  0  0  0
   0.12245   1.95908   1.88771 H   0  0  0  0  0  0
  -0.22015   0.06514   1.41188 O   0  0  0  0  0  0
   1.26466   1.49824   0.12022 C   0  0  0  0  0  0
   1.36904   2.54750  -0.15583 H   0  0  0  0  0  0
   0.94762   0.53507  -1.60155 Br  0  0  0  0  0  0
   2.66987   1.01875   0.82106 C   0  0  0  0  0  0
   2.57482   1.38208   1.84923 H   0  0  0  0  0  0
   2.75520  -0.61314   1.06666 C   0  0  0  0  0  0
   1.71316  -0.82067   1.23295 H   0  0  0  0  0  0
   2.97751  -1.64702  -0.37168 Cl  0  0  0  0  0  0
   3.34078  -1.28781   2.39746 C   0  0  0  0  0  0
   2.90740  -0.63847   3.17183 H   0  0  0  0  0  0
   2.74118  -2.71770   2.75453 C   0  0  0  0  0  0
   3.04516  -2.96870   3.77573 H   0  0  0  0  0  0
   3.30434  -4.11341   1.77544 Cl  0  0  0  0  0  0
   1.22375  -2.77244   2.74118 C   0  0  0  0  0  0
   3.88029   2.00269   0.25439 C   0  0  0  0  0  0
   3.59582   2.96086   0.70444 H   0  0  0  0  0  0
   3.75300   2.42093  -1.48345 Cl  0  0  0  0  0  0
   5.39974   1.83921   0.65384 C   0  0  0  0  0  0
   5.34035   1.33524   1.60006 H   0  0  0  0  0  0
   6.16779   3.16131   1.07316 C   0  0  0  0  0  0
   7.21454   2.90373   1.26388 H   0  0  0  0  0  0
   6.17728   4.46764  -0.15204 Cl  0  0  0  0  0  0
   5.64294   3.79684   2.36452 C   0  0  0  0  0  0
   4.87824  -1.20161   2.69128 C   0  0  0  0  0  0
   5.23683  -0.25869   2.34119 H   0  0  0  0  0  0
   5.95603  -2.38702   1.89004 Cl  0  0  0  0  0  0
   5.20583  -1.21900   4.18306 C   0  0  0  0  0  0
   6.32906   0.92706  -0.26093 C   0  0  0  0  0  0
   7.10379   0.51659   0.39033 H   0  0  0  0  0  0
   7.24281   1.76981  -1.55220 Cl  0  0  0  0  0  0
   5.66471  -0.26066  -0.92220 C   0  0  0  0  0  0
  -2.90798  -2.98364   1.83093 C   0  0  0  0  0  0
  -3.50877  -3.87529   2.02478 H   0  0  0  0  0  0
  -1.54521  -3.55068   0.81349 Cl  0  0  0  0  0  0
  -2.38554  -2.63494   3.20970 C   0  0  0  0  0  0
  -6.19221   4.45023  -1.74872 H   0  0  0  0  0  0
  -7.85221   4.65159  -1.15908 H   0  0  0  0  0  0
  -6.48528   5.00523  -0.07893 H   0  0  0  0  0  0
  -6.52402  -2.05463   1.76213 H   0  0  0  0  0  0
  -7.04770  -3.37594   0.76301 H   0  0  0  0  0  0
  -5.95428  -3.67260   2.12068 H   0  0  0  0  0  0
  -5.88258   1.49271   3.07883 H   0  0  0  0  0  0
  -6.15994  -0.21269   2.81089 H   0  0  0  0  0  0
  -4.59905   0.49838   2.47676 H   0  0  0  0  0  0
  -0.17234  -0.48217   0.59942 H   0  0  0  0  0  0
   0.83271  -2.64818   1.73078 H   0  0  0  0  0  0
   0.85354  -3.73327   3.11617 H   0  0  0  0  0  0
   0.79703  -1.98848   3.37465 H   0  0  0  0  0  0
   5.50156   3.05537   3.15236 H   0  0  0  0  0  0
   6.35760   4.54133   2.74401 H   0  0  0  0  0  0
   4.69304   4.31386   2.20878 H   0  0  0  0  0  0
   4.97634  -2.17709   4.64623 H   0  0  0  0  0  0
   6.27163  -1.01803   4.35386 H   0  0  0  0  0  0
   4.64632  -0.44149   4.71643 H   0  0  0  0  0  0
   4.87138   0.01047  -1.61856 H   0  0  0  0  0  0
   6.37062  -0.88427  -1.47511 H   0  0  0  0  0  0
   5.27062  -0.88945  -0.13999 H   0  0  0  0  0  0
  -3.20577  -2.33204   3.87081 H   0  0  0  0  0  0
  -1.92807  -3.52420   3.66559 H   0  0  0  0  0  0
  -1.64850  -1.83092   3.18454 H   0  0  0  0  0  0
  1  2  1  0  0  0
  1  3  1  0  0  0
  3  4  1  0  0  0
  3  5  1  0  0  0
  3  6  1  0  0  0
  7  8  1  0  0  0
  1  7  1  0  0  0
  7  9  1  0  0  0
  7 10  1  0  0  0
 10 11  1  0  0  0
 10 12  1  0  0  0
 12 13  1  0  0  0
 12 14  1  0  0  0
 12 15  1  0  0  0
 15 16  1  0  0  0
 15 17  1  0  0  0
 17 18  1  0  0  0
 17 19  1  0  0  0
 17 20  1  0  0  0
 21 22  1  0  0  0
  1 21  1  0  0  0
 21 23  1  0  0  0
 21 24  1  0  0  0
 25 26  1  0  0  0
 10 25  1  0  0  0
 25 27  1  0  0  0
 25 28  1  0  0  0
 28 29  1  0  0  0
 28 30  1  0  0  0
 28 31  1  0  0  0
 31 32  1  0  0  0
 31 33  1  0  0  0
 31 34  1  0  0  0
 34 35  1  0  0  0
 34 36  1  0  0  0
 36 37  1  0  0  0
 36 38  1  0  0  0
 36 39  1  0  0  0
 39 40  1  0  0  0
 39 41  1  0  0  0
 41 42  1  0  0  0
 41 43  1  0  0  0
 41 44  1  0  0  0
 45 46  1  0  0  0
 34 45  1  0  0  0
 45 47  1  0  0  0
 45 48  1  0  0  0
 48 49  1  0  0  0
 48 50  1  0  0  0
 50 51  1  0  0  0
 50 52  1  0  0  0
 50 53  1  0  0  0
 54 55  1  0  0  0
 39 54  1  0  0  0
 54 56  1  0  0  0
 54 57  1  0  0  0
 58 59  1  0  0  0
 48 58  1  0  0  0
 58 60  1  0  0  0
 58 61  1  0  0  0
 62 63  1  0  0  0
 15 62  1  0  0  0
 62 64  1  0  0  0
 62 65  1  0  0  0
  6 66  1  0  0  0
  6 67  1  0  0  0
  6 68  1  0  0  0
 20 69  1  0  0  0
 20 70  1  0  0  0
 20 71  1  0  0  0
 24 72  1  0  0  0
 24 73  1  0  0  0
 24 74  1  0  0  0
 30 75  1  0  0  0
 44 76  1  0  0  0
 44 77  1  0  0  0
 44 78  1  0  0  0
 53 79  1  0  0  0
 53 80  1  0  0  0
 53 81  1  0  0  0
 57 82  1  0  0  0
 57 83  1  0  0  0
 57 84  1  0  0  0
 61 85  1  0  0  0
 61 86  1  0  0  0
 61 87  1  0  0  0
 65 88  1  0  0  0
 65 89  1  0  0  0
 65 90  1  0  0  0
M  END
