(1R,2E,3S,4E)-2,4-bis(chloromethylidene)cyclobutane-1,3-diol
 OpenBabel08101019353D

 10 10  0  0  0  0  0  0  0  0999 V2000
   -1.1532   -0.9953   -0.2306 C   0  0  0  0  0
    0.8573   -3.7066   -0.3032 Cl  0  0  0  0  0
   -1.0116    0.4947    0.0235 C   0  0  0  0  0
    0.5045    0.4528    0.0150 C   0  0  0  0  0
    0.3592   -1.0524   -0.1211 C   0  0  0  0  0
   -1.8389   -1.6843    0.8212 O   0  0  0  0  0
    1.0906    1.0680   -1.1380 O   0  0  0  0  0
    1.2470   -2.0463   -0.1423 C   0  0  0  0  0
   -1.9030    1.4684    0.2072 C   0  0  0  0  0
   -1.5146    3.1119    0.4929 Cl  0  0  0  0  0
  1  3  1  0  0  0
  5  1  1  0  0  0
  1  6  1  0  0  0
  8  2  1  0  0  0
  3  4  1  0  0  0
  3  9  2  0  0  0
  4  5  1  0  0  0
  4  7  1  0  0  0
  5  8  2  0  0  0
  9 10  1  0  0  0
M  END
