c:/jmol-dev/bobtest/cip/seqcis/t.mol
__Jmol-14_05131712473D 1   1.00000     0.00000     0
Jmol version 14.15.4  2017-05-09 15:03 EXTRACT: ({0:53})
 54 53  0  0  0  0              1 V2000
  -1.21820  -0.36382   0.10802 C   0  0  0  0  0  0
  -2.37414   0.25897  -0.67751 C   0  0  0  0  0  0
  -3.63061  -0.53820  -0.43906 C   0  0  0  0  0  0
  -4.72475   0.06561  -0.04615 C   0  0  0  0  0  0
  -4.77343   1.57051   0.01782 C   0  0  0  0  0  0
  -5.65577   1.91764  -0.51990 H   0  0  0  0  0  0
  -3.59932   2.09733  -0.60333 O   0  0  0  0  0  0
  -4.83964   2.01704   1.47973 C   0  0  0  0  0  0
  -5.93469  -0.74469   0.34191 C   0  0  0  0  0  0
  -5.68461  -1.80530   0.31783 H   0  0  0  0  0  0
  -7.07211  -0.46632  -0.64286 C   0  0  0  0  0  0
  -6.34746  -0.38232   1.66118 O   0  0  0  0  0  0
   0.05741   0.44553  -0.13406 C   0  0  0  0  0  0
   0.24678   0.51356  -1.20535 H   0  0  0  0  0  0
   1.23821  -0.24695   0.54957 C   0  0  0  0  0  0
   2.53249   0.49254   0.20456 C   0  0  0  0  0  0
   3.70090  -0.21777   0.83808 C   0  0  0  0  0  0
   4.63514   0.47106   1.44553 C   0  0  0  0  0  0
   4.45283   1.94942   1.67456 C   0  0  0  0  0  0
   5.30253   2.47995   1.24468 H   0  0  0  0  0  0
   4.36617   2.22588   3.17698 C   0  0  0  0  0  0
   3.25057   2.37215   1.02776 O   0  0  0  0  0  0
   5.89220  -0.21489   1.91522 C   0  0  0  0  0  0
   5.80642  -1.28793   1.74360 H   0  0  0  0  0  0
   7.09204   0.33157   1.13872 C   0  0  0  0  0  0
   6.07593   0.03102   3.31096 O   0  0  0  0  0  0
  -0.10210   1.75902   0.40584 O   0  0  0  0  0  0
  -1.45646  -0.35711   1.17166 H   0  0  0  0  0  0
  -1.06529  -1.39085  -0.22358 H   0  0  0  0  0  0
  -2.52694   1.28599  -0.34580 H   0  0  0  0  0  0
  -2.13587   0.25225  -1.74115 H   0  0  0  0  0  0
  -3.62899  -1.60731  -0.59215 H   0  0  0  0  0  0
  -3.56234   3.06352  -0.61885 H   0  0  0  0  0  0
  -3.95655   1.65929   2.00926 H   0  0  0  0  0  0
  -4.87487   3.10545   1.52602 H   0  0  0  0  0  0
  -5.73453   1.60436   1.94549 H   0  0  0  0  0  0
  -7.32209   0.59438  -0.61880 H   0  0  0  0  0  0
  -6.75727  -0.74263  -1.64918 H   0  0  0  0  0  0
  -7.94720  -1.05239  -0.36220 H   0  0  0  0  0  0
  -7.12308  -0.86562   1.97721 H   0  0  0  0  0  0
   1.09020  -0.23592   1.62944 H   0  0  0  0  0  0
   1.30526  -1.27802   0.20255 H   0  0  0  0  0  0
   2.66237   0.51207  -0.87752 H   0  0  0  0  0  0
   2.47949   1.51360   0.58271 H   0  0  0  0  0  0
   3.76811  -1.29478   0.79150 H   0  0  0  0  0  0
   5.28458   1.89379   3.66111 H   0  0  0  0  0  0
   4.23426   3.29529   3.34262 H   0  0  0  0  0  0
   3.51786   1.68577   3.59757 H   0  0  0  0  0  0
   3.06946   3.31814   1.11367 H   0  0  0  0  0  0
   7.17781   1.40464   1.31048 H   0  0  0  0  0  0
   8.00121  -0.16456   1.47851 H   0  0  0  0  0  0
   6.95197   0.14411   0.07419 H   0  0  0  0  0  0
   6.86789  -0.38152   3.68209 H   0  0  0  0  0  0
  -0.27391   1.77493   1.35735 H   0  0  0  0  0  0
  1  2  1  0  0  0
  2  3  1  0  0  0
  3  4  2  0  0  0
  4  5  1  0  0  0
  5  6  1  0  0  0
  5  7  1  0  0  0
  5  8  1  0  0  0
  4  9  1  0  0  0
  9 10  1  0  0  0
  9 11  1  0  0  0
  9 12  1  0  0  0
  1 13  1  0  0  0
 13 14  1  0  0  0
 13 15  1  0  0  0
 15 16  1  0  0  0
 16 17  1  0  0  0
 17 18  2  0  0  0
 18 19  1  0  0  0
 19 20  1  0  0  0
 19 21  1  0  0  0
 19 22  1  0  0  0
 18 23  1  0  0  0
 23 24  1  0  0  0
 23 25  1  0  0  0
 23 26  1  0  0  0
 13 27  1  0  0  0
  1 28  1  0  0  0
  1 29  1  0  0  0
  2 30  1  0  0  0
  2 31  1  0  0  0
  3 32  1  0  0  0
  7 33  1  0  0  0
  8 34  1  0  0  0
  8 35  1  0  0  0
  8 36  1  0  0  0
 11 37  1  0  0  0
 11 38  1  0  0  0
 11 39  1  0  0  0
 12 40  1  0  0  0
 15 41  1  0  0  0
 15 42  1  0  0  0
 16 43  1  0  0  0
 16 44  1  0  0  0
 17 45  1  0  0  0
 21 46  1  0  0  0
 21 47  1  0  0  0
 21 48  1  0  0  0
 22 49  1  0  0  0
 25 50  1  0  0  0
 25 51  1  0  0  0
 25 52  1  0  0  0
 26 53  1  0  0  0
 27 54  1  0  0  0
M  END
