c:/jmol-dev/bobtest/cip/seqcis/seqcis3.mol
__Jmol-14_05131712043D 1   1.00000     0.00000     0
Jmol version 14.15.4  2017-05-09 15:03 EXTRACT: ({0:53})
 54 53  0  0  0  0              1 V2000
   1.17560   0.48532   0.10226 C   0  0  0  0  0  0
   2.42454  -0.15092  -0.51131 C   0  0  0  0  0  0
   3.59494   0.78495  -0.35211 C   0  0  0  0  0  0
   4.70827   0.35542   0.18835 C   0  0  0  0  0  0
   4.87514  -1.10784   0.50804 C   0  0  0  0  0  0
   5.81422  -1.45735   0.07894 H   0  0  0  0  0  0
   3.78825  -1.83361  -0.06975 O   0  0  0  0  0  0
   4.88727  -1.30020   2.02586 C   0  0  0  0  0  0
   5.82211   1.32456   0.49043 C   0  0  0  0  0  0
   5.48856   2.33976   0.27563 H   0  0  0  0  0  0
   7.03688   0.99220  -0.37838 C   0  0  0  0  0  0
   6.18093   1.22278   1.86993 O   0  0  0  0  0  0
  -0.01262  -0.46484  -0.05937 C   0  0  0  0  0  0
  -0.12949  -0.72485  -1.11145 H   0  0  0  0  0  0
  -1.28568   0.22086   0.44093 C   0  0  0  0  0  0
  -2.49182  -0.67929   0.16529 C   0  0  0  0  0  0
  -3.75092   0.01680   0.61381 C   0  0  0  0  0  0
  -4.86740  -0.65880   0.72889 C   0  0  0  0  0  0
  -4.85700  -2.15984   0.59502 C   0  0  0  0  0  0
  -5.56623  -2.44929  -0.18051 H   0  0  0  0  0  0
  -5.25121  -2.79371   1.93064 C   0  0  0  0  0  0
  -3.54363  -2.58103   0.22071 O   0  0  0  0  0  0
  -6.16217   0.06507   0.99507 C   0  0  0  0  0  0
  -5.96084   1.12537   1.14812 H   0  0  0  0  0  0
  -7.09910  -0.10864  -0.20202 C   0  0  0  0  0  0
  -6.77874  -0.47635   2.16508 O   0  0  0  0  0  0
   0.21961  -1.65185   0.70172 O   0  0  0  0  0  0
   1.34766   0.67508   1.16175 H   0  0  0  0  0  0
   0.96040   1.42578  -0.40503 H   0  0  0  0  0  0
   2.63963  -1.09137  -0.00392 H   0  0  0  0  0  0
   2.25248  -0.34068  -1.57080 H   0  0  0  0  0  0
   3.51582   1.80977  -0.68363 H   0  0  0  0  0  0
   3.83099  -2.78853   0.07657 H   0  0  0  0  0  0
   3.94708  -0.94167   2.44506 H   0  0  0  0  0  0
   5.00798  -2.35849   2.25709 H   0  0  0  0  0  0
   5.71525  -0.73735   2.45680 H   0  0  0  0  0  0
   7.37033  -0.02309  -0.16359 H   0  0  0  0  0  0
   6.76320   1.06974  -1.43063 H   0  0  0  0  0  0
   7.84246   1.69316  -0.15991 H   0  0  0  0  0  0
   6.89374   1.81960   2.13591 H   0  0  0  0  0  0
  -1.20405   0.40088   1.51287 H   0  0  0  0  0  0
  -1.41485   1.17052  -0.07817 H   0  0  0  0  0  0
  -2.55279  -0.88805  -0.90281 H   0  0  0  0  0  0
  -2.37936  -1.61528   0.71268 H   0  0  0  0  0  0
  -3.73288   1.07266   0.84054 H   0  0  0  0  0  0
  -6.25087  -2.46078   2.20984 H   0  0  0  0  0  0
  -5.24366  -3.87951   1.83378 H   0  0  0  0  0  0
  -4.53988  -2.49264   2.69978 H   0  0  0  0  0  0
  -3.45722  -3.53617   0.09711 H   0  0  0  0  0  0
  -7.30047  -1.16899  -0.35495 H   0  0  0  0  0  0
  -8.03558   0.41490  -0.00942 H   0  0  0  0  0  0
  -6.62890   0.30423  -1.09443 H   0  0  0  0  0  0
  -7.61869  -0.05698   2.39690 H   0  0  0  0  0  0
   0.33322  -1.49556   1.64925 H   0  0  0  0  0  0
  1  2  1  0  0  0
  2  3  1  0  0  0
  3  4  2  0  0  0
  4  5  1  0  0  0
  5  6  1  0  0  0
  5  7  1  0  0  0
  5  8  1  0  0  0
  4  9  1  0  0  0
  9 10  1  0  0  0
  9 11  1  0  0  0
  9 12  1  0  0  0
  1 13  1  0  0  0
 13 14  1  0  0  0
 13 15  1  0  0  0
 15 16  1  0  0  0
 16 17  1  0  0  0
 17 18  2  0  0  0
 18 19  1  0  0  0
 19 20  1  0  0  0
 19 21  1  0  0  0
 19 22  1  0  0  0
 18 23  1  0  0  0
 23 24  1  0  0  0
 23 25  1  0  0  0
 23 26  1  0  0  0
 13 27  1  0  0  0
  1 28  1  0  0  0
  1 29  1  0  0  0
  2 30  1  0  0  0
  2 31  1  0  0  0
  3 32  1  0  0  0
  7 33  1  0  0  0
  8 34  1  0  0  0
  8 35  1  0  0  0
  8 36  1  0  0  0
 11 37  1  0  0  0
 11 38  1  0  0  0
 11 39  1  0  0  0
 12 40  1  0  0  0
 15 41  1  0  0  0
 15 42  1  0  0  0
 16 43  1  0  0  0
 16 44  1  0  0  0
 17 45  1  0  0  0
 21 46  1  0  0  0
 21 47  1  0  0  0
 21 48  1  0  0  0
 22 49  1  0  0  0
 25 50  1  0  0  0
 25 51  1  0  0  0
 25 52  1  0  0  0
 26 53  1  0  0  0
 27 54  1  0  0  0
M  END
